<?xml version="1.0" encoding="UTF-8"?>
<!-- generated on 2017-11-07 17:10:05.704705 by $Id$
  options: tests/queens-quay/qq.net.xml
-->
<routes xmlns:xsi="http://www.w3.org/2001/XMLSchema-instance" xsi:noNamespaceSchemaLocation="http://sumo.dlr.de/xsd/routes_file.xsd">
    <vType id="bicycle" vClass="bicycle" speedFactor="normc(1.00,0.10,0.20,2.00)"/>
    <trip id="bike0" depart="0.00" from="-407215251#1" to="538879500" type="bicycle"/>
    <trip id="bike1" depart="2.00" from="58741184#1" to="407215251#1" type="bicycle"/>
    <trip id="bike2" depart="4.00" from="41789169#1" to="-538879504" type="bicycle"/>
    <trip id="bike3" depart="6.00" from="298236444#0" to="340533303#2" type="bicycle"/>
    <trip id="bike4" depart="8.00" from="24221150#1" to="24159283#3" type="bicycle"/>
    <trip id="bike5" depart="10.00" from="58741183#0" to="334951837#1" type="bicycle"/>
    <trip id="bike6" depart="12.00" from="298236444#0" to="538879500" type="bicycle"/>
    <trip id="bike7" depart="14.00" from="-407215251#1" to="-538879504" type="bicycle"/>
    <trip id="bike8" depart="16.00" from="298236444#0" to="-340533303#0" type="bicycle"/>
    <trip id="bike9" depart="18.00" from="298236444#0" to="24221150#1" type="bicycle"/>
    <trip id="bike10" depart="20.00" from="334951835" to="342652996#0" type="bicycle"/>
    <trip id="bike11" depart="22.00" from="-435288254#0" to="334951837#1" type="bicycle"/>
    <trip id="bike12" depart="24.00" from="298236444#0" to="-15090081" type="bicycle"/>
    <trip id="bike13" depart="26.00" from="24603868#1" to="-538879504" type="bicycle"/>
    <trip id="bike14" depart="28.00" from="24221150#1" to="334951837#1" type="bicycle"/>
    <trip id="bike15" depart="30.00" from="298236444#0" to="445664696" type="bicycle"/>
    <trip id="bike16" depart="32.00" from="-407215251#1" to="24221150#0" type="bicycle"/>
    <trip id="bike17" depart="34.00" from="445664696" to="407215251#1" type="bicycle"/>
    <trip id="bike18" depart="36.00" from="-58741180" to="334951837#1" type="bicycle"/>
    <trip id="bike19" depart="38.00" from="340533303#2" to="-538879496#0" type="bicycle"/>
    <trip id="bike20" depart="40.00" from="298236444#0" to="24603868#1" type="bicycle"/>
    <trip id="bike21" depart="42.00" from="340533303#2" to="-435288254#1" type="bicycle"/>
    <trip id="bike22" depart="44.00" from="298236444#0" to="58741179#1" type="bicycle"/>
    <trip id="bike23" depart="46.00" from="58741184#1" to="-538879504" type="bicycle"/>
    <trip id="bike24" depart="48.00" from="61511564#0" to="24221150#1" type="bicycle"/>
    <trip id="bike25" depart="50.00" from="340533303#2" to="334951837#1" type="bicycle"/>
    <trip id="bike26" depart="52.00" from="-302982383#0" to="-538879504" type="bicycle"/>
    <trip id="bike27" depart="54.00" from="24603868#1" to="342652996#1" type="bicycle"/>
    <trip id="bike28" depart="56.00" from="-41789169#2" to="-24221150#1" type="bicycle"/>
    <trip id="bike29" depart="58.00" from="-302298890#0" to="45476401#1" type="bicycle"/>
    <trip id="bike30" depart="60.00" from="342652996#1" to="334951835" type="bicycle"/>
    <trip id="bike31" depart="62.00" from="342652996#1" to="407215251#1" type="bicycle"/>
    <trip id="bike32" depart="64.00" from="298236444#0" to="-538879507" type="bicycle"/>
    <trip id="bike33" depart="66.00" from="-445664696" to="342652996#1" type="bicycle"/>
    <trip id="bike34" depart="68.00" from="340533303#2" to="58741184#1" type="bicycle"/>
    <trip id="bike35" depart="70.00" from="-24221150#0" to="58741184#1" type="bicycle"/>
    <trip id="bike36" depart="72.00" from="-24159283#3" to="-340533303#0" type="bicycle"/>
    <trip id="bike37" depart="74.00" from="24603868#1" to="-538879504" type="bicycle"/>
    <trip id="bike38" depart="76.00" from="298236444#1" to="58741179#1" type="bicycle"/>
    <trip id="bike39" depart="78.00" from="24603868#1" to="342652996#0" type="bicycle"/>
    <trip id="bike40" depart="80.00" from="58741184#1" to="407215251#1" type="bicycle"/>
    <trip id="bike41" depart="82.00" from="298236444#0" to="219058898#0" type="bicycle"/>
    <trip id="bike42" depart="84.00" from="15090081" to="334951837#1" type="bicycle"/>
    <trip id="bike43" depart="86.00" from="298236444#0" to="-219059015" type="bicycle"/>
    <trip id="bike44" depart="88.00" from="298236444#0" to="24603868#1" type="bicycle"/>
    <trip id="bike45" depart="90.00" from="342652996#1" to="334951838" type="bicycle"/>
    <trip id="bike46" depart="92.00" from="340533303#2" to="407215251#1" type="bicycle"/>
    <trip id="bike47" depart="94.00" from="298236444#0" to="24603868#1" type="bicycle"/>
    <trip id="bike48" depart="96.00" from="302298890#0" to="334951837#1" type="bicycle"/>
    <trip id="bike49" depart="98.00" from="298236444#0" to="-538879504" type="bicycle"/>
    <trip id="bike50" depart="100.00" from="538879507" to="61511564#0" type="bicycle"/>
    <trip id="bike51" depart="102.00" from="342652996#1" to="334951838" type="bicycle"/>
    <trip id="bike52" depart="104.00" from="58741183#0" to="334951837#1" type="bicycle"/>
    <trip id="bike53" depart="106.00" from="-407215251#1" to="340533303#2" type="bicycle"/>
    <trip id="bike54" depart="108.00" from="340533303#2" to="-302982383#0" type="bicycle"/>
    <trip id="bike55" depart="110.00" from="340533303#2" to="407215251#1" type="bicycle"/>
    <trip id="bike56" depart="112.00" from="219058898#0" to="407215251#1" type="bicycle"/>
    <trip id="bike57" depart="114.00" from="298236444#0" to="-445664696" type="bicycle"/>
    <trip id="bike58" depart="116.00" from="342652996#0" to="334951837#1" type="bicycle"/>
    <trip id="bike59" depart="118.00" from="340533303#2" to="-435288254#1" type="bicycle"/>
    <trip id="bike60" depart="120.00" from="340533303#2" to="24603868#1" type="bicycle"/>
    <trip id="bike61" depart="122.00" from="58741184#1" to="334951837#1" type="bicycle"/>
    <trip id="bike62" depart="124.00" from="340533303#2" to="334951837#1" type="bicycle"/>
    <trip id="bike63" depart="126.00" from="298236444#0" to="538879507" type="bicycle"/>
    <trip id="bike64" depart="128.00" from="435288254#1" to="-24221150#1" type="bicycle"/>
    <trip id="bike65" depart="130.00" from="298236444#0" to="-538879507" type="bicycle"/>
    <trip id="bike66" depart="132.00" from="24159283#3" to="-24221150#1" type="bicycle"/>
    <trip id="bike67" depart="134.00" from="298236444#0" to="24603868#1" type="bicycle"/>
    <trip id="bike68" depart="136.00" from="298236444#0" to="24603868#1" type="bicycle"/>
    <trip id="bike69" depart="138.00" from="298236444#0" to="-58741180" type="bicycle"/>
    <trip id="bike70" depart="140.00" from="298236444#0" to="-538879504" type="bicycle"/>
    <trip id="bike71" depart="142.00" from="340533303#2" to="334951837#1" type="bicycle"/>
    <trip id="bike72" depart="144.00" from="298236444#0" to="-302982383#0" type="bicycle"/>
    <trip id="bike73" depart="146.00" from="298236444#0" to="24603868#1" type="bicycle"/>
    <trip id="bike74" depart="148.00" from="298236444#0" to="24603868#1" type="bicycle"/>
    <trip id="bike75" depart="150.00" from="298236444#0" to="538879507" type="bicycle"/>
    <trip id="bike76" depart="152.00" from="24603868#1" to="-24221150#1" type="bicycle"/>
    <trip id="bike77" depart="154.00" from="298236444#0" to="-302982383#1" type="bicycle"/>
    <trip id="bike78" depart="156.00" from="298236444#0" to="-538879504" type="bicycle"/>
    <trip id="bike79" depart="158.00" from="340533303#2" to="24603868#1" type="bicycle"/>
    <trip id="bike80" depart="160.00" from="58741183#0" to="-24159283#3" type="bicycle"/>
    <trip id="bike81" depart="162.00" from="298236444#0" to="-302982383#0" type="bicycle"/>
    <trip id="bike82" depart="164.00" from="298236444#0" to="-24159283#2" type="bicycle"/>
    <trip id="bike83" depart="166.00" from="58741184#1" to="24159283#3" type="bicycle"/>
    <trip id="bike84" depart="168.00" from="58741184#1" to="24159283#3" type="bicycle"/>
    <trip id="bike85" depart="170.00" from="-538879500" to="342652996#1" type="bicycle"/>
    <trip id="bike86" depart="172.00" from="24221150#1" to="-302982383#2" type="bicycle"/>
    <trip id="bike87" depart="174.00" from="24603868#2" to="-538879510" type="bicycle"/>
    <trip id="bike88" depart="176.00" from="538879500" to="334951837#1" type="bicycle"/>
    <trip id="bike89" depart="178.00" from="298236444#0" to="302298890#0" type="bicycle"/>
    <trip id="bike90" depart="180.00" from="58741184#1" to="407215251#1" type="bicycle"/>
    <trip id="bike91" depart="182.00" from="-24221150#1" to="407215251#1" type="bicycle"/>
    <trip id="bike92" depart="184.00" from="24221150#0" to="58741184#1" type="bicycle"/>
    <trip id="bike93" depart="186.00" from="298236444#0" to="-302982383#0" type="bicycle"/>
    <trip id="bike94" depart="188.00" from="298236444#0" to="-538879507" type="bicycle"/>
    <trip id="bike95" depart="190.00" from="58741184#1" to="407215251#1" type="bicycle"/>
    <trip id="bike96" depart="192.00" from="298236444#0" to="24603868#1" type="bicycle"/>
    <trip id="bike97" depart="194.00" from="340533303#2" to="538879496#0" type="bicycle"/>
    <trip id="bike98" depart="196.00" from="298236444#0" to="24603868#1" type="bicycle"/>
    <trip id="bike99" depart="198.00" from="-302982383#1" to="334951837#1" type="bicycle"/>
    <trip id="bike100" depart="200.00" from="340533303#2" to="334951837#1" type="bicycle"/>
    <trip id="bike101" depart="202.00" from="302982383#0" to="334951837#1" type="bicycle"/>
    <trip id="bike102" depart="204.00" from="298236444#0" to="445664696" type="bicycle"/>
    <trip id="bike103" depart="206.00" from="58741184#1" to="334951837#1" type="bicycle"/>
    <trip id="bike104" depart="208.00" from="298236444#0" to="-538879510" type="bicycle"/>
    <trip id="bike105" depart="210.00" from="340533303#2" to="58741184#1" type="bicycle"/>
    <trip id="bike106" depart="212.00" from="-538879507" to="334951837#1" type="bicycle"/>
    <trip id="bike107" depart="214.00" from="302298890#0" to="58741184#1" type="bicycle"/>
    <trip id="bike108" depart="216.00" from="58741184#1" to="538879492#1" type="bicycle"/>
    <trip id="bike109" depart="218.00" from="-538879504" to="58741184#1" type="bicycle"/>
    <trip id="bike110" depart="220.00" from="-407215251#1" to="-538879504" type="bicycle"/>
    <trip id="bike111" depart="222.00" from="-538879504" to="407215251#1" type="bicycle"/>
    <trip id="bike112" depart="224.00" from="302982383#1" to="342652996#1" type="bicycle"/>
    <trip id="bike113" depart="226.00" from="-407215251#1" to="24603868#1" type="bicycle"/>
    <trip id="bike114" depart="228.00" from="-538879507" to="334951837#1" type="bicycle"/>
    <trip id="bike115" depart="230.00" from="298236444#0" to="342652996#1" type="bicycle"/>
    <trip id="bike116" depart="232.00" from="342652996#1" to="407215251#1" type="bicycle"/>
    <trip id="bike117" depart="234.00" from="-538879507" to="334951837#1" type="bicycle"/>
    <trip id="bike118" depart="236.00" from="24603868#2" to="334951837#1" type="bicycle"/>
    <trip id="bike119" depart="238.00" from="538879510" to="407215251#1" type="bicycle"/>
    <trip id="bike120" depart="240.00" from="302982383#0" to="-538879504" type="bicycle"/>
    <trip id="bike121" depart="242.00" from="24603868#2" to="334951837#1" type="bicycle"/>
    <trip id="bike122" depart="244.00" from="298236444#0" to="445664696" type="bicycle"/>
    <trip id="bike123" depart="246.00" from="-445664696" to="407215251#1" type="bicycle"/>
    <trip id="bike124" depart="248.00" from="-538879504" to="407215251#1" type="bicycle"/>
    <trip id="bike125" depart="250.00" from="-407215251#1" to="538879507" type="bicycle"/>
    <trip id="bike126" depart="252.00" from="298236444#0" to="-538879500" type="bicycle"/>
    <trip id="bike127" depart="254.00" from="24221150#1" to="538879496#0" type="bicycle"/>
    <trip id="bike128" depart="256.00" from="-302982383#2" to="-538879504" type="bicycle"/>
    <trip id="bike129" depart="258.00" from="298236444#0" to="24221150#1" type="bicycle"/>
    <trip id="bike130" depart="260.00" from="298236444#0" to="24159283#3" type="bicycle"/>
    <trip id="bike131" depart="262.00" from="-24221150#1" to="334951837#1" type="bicycle"/>
    <trip id="bike132" depart="264.00" from="342652996#0" to="407215251#1" type="bicycle"/>
    <trip id="bike133" depart="266.00" from="340533303#2" to="298236444#1" type="bicycle"/>
    <trip id="bike134" depart="268.00" from="340533303#0" to="538879496#0" type="bicycle"/>
    <trip id="bike135" depart="270.00" from="538879496#0" to="-538879504" type="bicycle"/>
    <trip id="bike136" depart="272.00" from="-445664696" to="334951837#1" type="bicycle"/>
    <trip id="bike137" depart="274.00" from="298236444#0" to="302982383#2" type="bicycle"/>
    <trip id="bike138" depart="276.00" from="298236444#0" to="24603868#1" type="bicycle"/>
    <trip id="bike139" depart="278.00" from="58741183#0" to="-302982383#0" type="bicycle"/>
    <trip id="bike140" depart="280.00" from="24603868#3" to="-538879504" type="bicycle"/>
    <trip id="bike141" depart="282.00" from="-407215251#1" to="24603868#1" type="bicycle"/>
    <trip id="bike142" depart="284.00" from="58741184#1" to="-538879504" type="bicycle"/>
    <trip id="bike143" depart="286.00" from="41789169#2" to="-24221150#0" type="bicycle"/>
    <trip id="bike144" depart="288.00" from="340533303#2" to="24603868#1" type="bicycle"/>
    <trip id="bike145" depart="290.00" from="302298890#0" to="334951837#1" type="bicycle"/>
    <trip id="bike146" depart="292.00" from="538879507" to="334951837#1" type="bicycle"/>
    <trip id="bike147" depart="294.00" from="538879507" to="334951837#1" type="bicycle"/>
    <trip id="bike148" depart="296.00" from="302982383#0" to="-538879504" type="bicycle"/>
    <trip id="bike149" depart="298.00" from="-538879504" to="58741184#1" type="bicycle"/>
    <trip id="bike150" depart="300.00" from="58741184#1" to="-340533303#0" type="bicycle"/>
    <trip id="bike151" depart="302.00" from="298236444#0" to="58741179#1" type="bicycle"/>
    <trip id="bike152" depart="304.00" from="538879507" to="407215251#1" type="bicycle"/>
    <trip id="bike153" depart="306.00" from="298236444#0" to="24603868#1" type="bicycle"/>
    <trip id="bike154" depart="308.00" from="24221150#1" to="58741184#1" type="bicycle"/>
    <trip id="bike155" depart="310.00" from="538879507" to="58741184#1" type="bicycle"/>
    <trip id="bike156" depart="312.00" from="340533303#2" to="-41789169#1" type="bicycle"/>
    <trip id="bike157" depart="314.00" from="298236444#0" to="-538879504" type="bicycle"/>
    <trip id="bike158" depart="316.00" from="58741183#0" to="-538879504" type="bicycle"/>
    <trip id="bike159" depart="318.00" from="298236444#0" to="-302982383#2" type="bicycle"/>
    <trip id="bike160" depart="320.00" from="298236444#0" to="24159283#3" type="bicycle"/>
    <trip id="bike161" depart="322.00" from="-24221150#1" to="58741184#1" type="bicycle"/>
    <trip id="bike162" depart="324.00" from="-24159283#3" to="334951837#1" type="bicycle"/>
    <trip id="bike163" depart="326.00" from="58741183#0" to="-340533303#0" type="bicycle"/>
    <trip id="bike164" depart="328.00" from="-41789169#2" to="342652996#1" type="bicycle"/>
    <trip id="bike165" depart="330.00" from="340533303#2" to="-302982383#2" type="bicycle"/>
    <trip id="bike166" depart="332.00" from="340533303#2" to="334951838" type="bicycle"/>
    <trip id="bike167" depart="334.00" from="302982383#0" to="-538879510" type="bicycle"/>
    <trip id="bike168" depart="336.00" from="340533303#2" to="24603868#1" type="bicycle"/>
    <trip id="bike169" depart="338.00" from="24603868#1" to="-538879504" type="bicycle"/>
    <trip id="bike170" depart="340.00" from="298236444#0" to="-15090081" type="bicycle"/>
    <trip id="bike171" depart="342.00" from="58741184#1" to="-538879504" type="bicycle"/>
    <trip id="bike172" depart="344.00" from="58741184#1" to="334951837#1" type="bicycle"/>
    <trip id="bike173" depart="346.00" from="340533303#0" to="334951837#1" type="bicycle"/>
    <trip id="bike174" depart="348.00" from="298236444#0" to="342652996#1" type="bicycle"/>
    <trip id="bike175" depart="350.00" from="58741184#1" to="407215251#1" type="bicycle"/>
    <trip id="bike176" depart="352.00" from="58741184#1" to="-538879504" type="bicycle"/>
    <trip id="bike177" depart="354.00" from="538879507" to="41789169#3" type="bicycle"/>
    <trip id="bike178" depart="356.00" from="58741184#1" to="342652996#1" type="bicycle"/>
    <trip id="bike179" depart="358.00" from="58741184#1" to="538879492#1" type="bicycle"/>
    <trip id="bike180" depart="360.00" from="298236444#0" to="340533303#2" type="bicycle"/>
    <trip id="bike181" depart="362.00" from="24221150#0" to="407215251#1" type="bicycle"/>
    <trip id="bike182" depart="364.00" from="298236444#0" to="58741179#1" type="bicycle"/>
    <trip id="bike183" depart="366.00" from="340533303#2" to="24603868#1" type="bicycle"/>
    <trip id="bike184" depart="368.00" from="-24159283#3" to="334951837#1" type="bicycle"/>
    <trip id="bike185" depart="370.00" from="298236444#0" to="342652996#0" type="bicycle"/>
    <trip id="bike186" depart="372.00" from="538879507" to="334951837#1" type="bicycle"/>
    <trip id="bike187" depart="374.00" from="-302982383#1" to="334951837#1" type="bicycle"/>
    <trip id="bike188" depart="376.00" from="-407215251#1" to="24221150#1" type="bicycle"/>
    <trip id="bike189" depart="378.00" from="-538879504" to="407215251#1" type="bicycle"/>
    <trip id="bike190" depart="380.00" from="302982383#0" to="334951837#1" type="bicycle"/>
    <trip id="bike191" depart="382.00" from="-407215251#1" to="340533303#2" type="bicycle"/>
    <trip id="bike192" depart="384.00" from="-24159283#3" to="342652996#0" type="bicycle"/>
    <trip id="bike193" depart="386.00" from="58741183#0" to="407215251#1" type="bicycle"/>
    <trip id="bike194" depart="388.00" from="302298890#0" to="58741184#1" type="bicycle"/>
    <trip id="bike195" depart="390.00" from="302982383#0" to="-24221150#1" type="bicycle"/>
    <trip id="bike196" depart="392.00" from="538879507" to="298236444#1" type="bicycle"/>
    <trip id="bike197" depart="394.00" from="58741184#1" to="-538879504" type="bicycle"/>
    <trip id="bike198" depart="396.00" from="24221150#1" to="334951837#1" type="bicycle"/>
    <trip id="bike199" depart="398.00" from="-538879492#1" to="538879510" type="bicycle"/>
    <trip id="bike200" depart="400.00" from="-24159283#4" to="342652996#0" type="bicycle"/>
    <trip id="bike201" depart="402.00" from="298236444#0" to="342652996#1" type="bicycle"/>
    <trip id="bike202" depart="404.00" from="298236444#0" to="24603868#2" type="bicycle"/>
    <trip id="bike203" depart="406.00" from="298236444#0" to="-24159283#3" type="bicycle"/>
    <trip id="bike204" depart="408.00" from="24603868#1" to="-24221150#0" type="bicycle"/>
    <trip id="bike205" depart="410.00" from="-15090081" to="334951837#1" type="bicycle"/>
    <trip id="bike206" depart="412.00" from="302982383#0" to="334951837#1" type="bicycle"/>
    <trip id="bike207" depart="414.00" from="-407215251#1" to="24603868#1" type="bicycle"/>
    <trip id="bike208" depart="416.00" from="58741184#1" to="24159283#3" type="bicycle"/>
    <trip id="bike209" depart="418.00" from="58741184#1" to="-302982383#0" type="bicycle"/>
    <trip id="bike210" depart="420.00" from="340533303#2" to="302982383#0" type="bicycle"/>
    <trip id="bike211" depart="422.00" from="219059017#1" to="334951837#1" type="bicycle"/>
    <trip id="bike212" depart="424.00" from="538879507" to="58741184#1" type="bicycle"/>
    <trip id="bike213" depart="426.00" from="24221150#1" to="334951838" type="bicycle"/>
    <trip id="bike214" depart="428.00" from="298236444#0" to="-24221150#1" type="bicycle"/>
    <trip id="bike215" depart="430.00" from="342652996#1" to="407215251#1" type="bicycle"/>
    <trip id="bike216" depart="432.00" from="298236444#0" to="-445664696" type="bicycle"/>
    <trip id="bike217" depart="434.00" from="298236444#0" to="15090081" type="bicycle"/>
    <trip id="bike218" depart="436.00" from="-58741183#0" to="407215251#1" type="bicycle"/>
    <trip id="bike219" depart="438.00" from="298236444#1" to="58741179#1" type="bicycle"/>
    <trip id="bike220" depart="440.00" from="24603868#1" to="-24221150#0" type="bicycle"/>
    <trip id="bike221" depart="442.00" from="58741184#1" to="24159283#4" type="bicycle"/>
    <trip id="bike222" depart="444.00" from="340533303#2" to="334951837#1" type="bicycle"/>
    <trip id="bike223" depart="446.00" from="-538879500" to="407215251#1" type="bicycle"/>
    <trip id="bike224" depart="448.00" from="24603868#1" to="342652996#1" type="bicycle"/>
    <trip id="bike225" depart="450.00" from="342652996#0" to="334951837#1" type="bicycle"/>
    <trip id="bike226" depart="452.00" from="-445664696" to="334951837#1" type="bicycle"/>
    <trip id="bike227" depart="454.00" from="340533303#2" to="334951837#1" type="bicycle"/>
    <trip id="bike228" depart="456.00" from="-407215251#1" to="342652996#1" type="bicycle"/>
    <trip id="bike229" depart="458.00" from="298236444#0" to="538879496#0" type="bicycle"/>
    <trip id="bike230" depart="460.00" from="342652996#1" to="334951837#1" type="bicycle"/>
    <trip id="bike231" depart="462.00" from="-445664696" to="334951837#1" type="bicycle"/>
    <trip id="bike232" depart="464.00" from="340533303#2" to="538879500" type="bicycle"/>
    <trip id="bike233" depart="466.00" from="-334951838" to="-538879504" type="bicycle"/>
    <trip id="bike234" depart="468.00" from="219059015" to="407215251#1" type="bicycle"/>
    <trip id="bike235" depart="470.00" from="24603868#1" to="-538879504" type="bicycle"/>
    <trip id="bike236" depart="472.00" from="298236444#0" to="24603868#1" type="bicycle"/>
    <trip id="bike237" depart="474.00" from="24603868#1" to="-538879507" type="bicycle"/>
    <trip id="bike238" depart="476.00" from="340533303#2" to="334951837#1" type="bicycle"/>
    <trip id="bike239" depart="478.00" from="298236444#0" to="24603868#1" type="bicycle"/>
    <trip id="bike240" depart="480.00" from="298236444#0" to="-15090081" type="bicycle"/>
    <trip id="bike241" depart="482.00" from="298236444#0" to="-24221150#1" type="bicycle"/>
    <trip id="bike242" depart="484.00" from="538879507" to="58741184#1" type="bicycle"/>
    <trip id="bike243" depart="486.00" from="58741184#1" to="-538879504" type="bicycle"/>
    <trip id="bike244" depart="488.00" from="24603868#1" to="342652996#1" type="bicycle"/>
    <trip id="bike245" depart="490.00" from="340533303#2" to="302982383#0" type="bicycle"/>
    <trip id="bike246" depart="492.00" from="-407215251#1" to="342652996#1" type="bicycle"/>
    <trip id="bike247" depart="494.00" from="342652996#0" to="407215251#1" type="bicycle"/>
    <trip id="bike248" depart="496.00" from="298236444#0" to="24603868#1" type="bicycle"/>
    <trip id="bike249" depart="498.00" from="58741184#1" to="-340533303#1" type="bicycle"/>
    <trip id="bike250" depart="500.00" from="24603868#1" to="-24221150#0" type="bicycle"/>
    <trip id="bike251" depart="502.00" from="298236444#0" to="24603868#1" type="bicycle"/>
    <trip id="bike252" depart="504.00" from="298236444#0" to="-445664696" type="bicycle"/>
    <trip id="bike253" depart="506.00" from="58741184#1" to="334951837#1" type="bicycle"/>
    <trip id="bike254" depart="508.00" from="24603868#1" to="-538879510" type="bicycle"/>
    <trip id="bike255" depart="510.00" from="-407215251#1" to="342652996#0" type="bicycle"/>
    <trip id="bike256" depart="512.00" from="298236444#0" to="-445664696" type="bicycle"/>
    <trip id="bike257" depart="514.00" from="-407215251#1" to="342652996#0" type="bicycle"/>
    <trip id="bike258" depart="516.00" from="58741184#1" to="334951837#1" type="bicycle"/>
    <trip id="bike259" depart="518.00" from="58741184#1" to="334951837#1" type="bicycle"/>
    <trip id="bike260" depart="520.00" from="24221150#1" to="334951837#1" type="bicycle"/>
    <trip id="bike261" depart="522.00" from="538879507" to="407215251#1" type="bicycle"/>
    <trip id="bike262" depart="524.00" from="-24159283#4" to="342652996#0" type="bicycle"/>
    <trip id="bike263" depart="526.00" from="340533303#2" to="61511564#0" type="bicycle"/>
    <trip id="bike264" depart="528.00" from="219059015" to="407215251#1" type="bicycle"/>
    <trip id="bike265" depart="530.00" from="342652996#1" to="58741184#1" type="bicycle"/>
    <trip id="bike266" depart="532.00" from="24221150#0" to="58741184#1" type="bicycle"/>
    <trip id="bike267" depart="534.00" from="58741184#1" to="334951837#1" type="bicycle"/>
    <trip id="bike268" depart="536.00" from="340533303#2" to="-302982383#0" type="bicycle"/>
    <trip id="bike269" depart="538.00" from="298236444#0" to="219058898#0" type="bicycle"/>
    <trip id="bike270" depart="540.00" from="-445664696" to="334951837#1" type="bicycle"/>
    <trip id="bike271" depart="542.00" from="538879500" to="342652996#1" type="bicycle"/>
    <trip id="bike272" depart="544.00" from="342652996#1" to="298236444#1" type="bicycle"/>
    <trip id="bike273" depart="546.00" from="298236444#0" to="342652996#0" type="bicycle"/>
    <trip id="bike274" depart="548.00" from="298236444#0" to="-24159283#3" type="bicycle"/>
    <trip id="bike275" depart="550.00" from="298236444#0" to="-58741183#0" type="bicycle"/>
    <trip id="bike276" depart="552.00" from="340533303#2" to="407215251#1" type="bicycle"/>
    <trip id="bike277" depart="554.00" from="58741183#0" to="407215251#1" type="bicycle"/>
    <trip id="bike278" depart="556.00" from="-435288254#0" to="342652996#1" type="bicycle"/>
    <trip id="bike279" depart="558.00" from="-24221150#0" to="538879492#1" type="bicycle"/>
    <trip id="bike280" depart="560.00" from="-445664696" to="334951837#1" type="bicycle"/>
    <trip id="bike281" depart="562.00" from="24221150#1" to="298236444#1" type="bicycle"/>
    <trip id="bike282" depart="564.00" from="-58741180" to="407215251#1" type="bicycle"/>
    <trip id="bike283" depart="566.00" from="24603868#1" to="340533303#2" type="bicycle"/>
    <trip id="bike284" depart="568.00" from="58741184#1" to="407215251#1" type="bicycle"/>
    <trip id="bike285" depart="570.00" from="58741183#0" to="407215251#1" type="bicycle"/>
    <trip id="bike286" depart="572.00" from="298236444#0" to="538879500" type="bicycle"/>
    <trip id="bike287" depart="574.00" from="-445664696" to="407215251#1" type="bicycle"/>
    <trip id="bike288" depart="576.00" from="-538879504" to="58741184#1" type="bicycle"/>
    <trip id="bike289" depart="578.00" from="24603868#1" to="-340533303#0" type="bicycle"/>
    <trip id="bike290" depart="580.00" from="-538879496#0" to="342652996#0" type="bicycle"/>
    <trip id="bike291" depart="582.00" from="58741184#1" to="334951837#1" type="bicycle"/>
    <trip id="bike292" depart="584.00" from="342652996#1" to="302982383#2" type="bicycle"/>
    <trip id="bike293" depart="586.00" from="340533303#2" to="334951837#1" type="bicycle"/>
    <trip id="bike294" depart="588.00" from="-24221150#1" to="58741184#1" type="bicycle"/>
    <trip id="bike295" depart="590.00" from="340533303#0" to="24603868#1" type="bicycle"/>
    <trip id="bike296" depart="592.00" from="219058898#0" to="334951837#1" type="bicycle"/>
    <trip id="bike297" depart="594.00" from="538879507" to="334951835" type="bicycle"/>
    <trip id="bike298" depart="596.00" from="-407215251#1" to="538879507" type="bicycle"/>
    <trip id="bike299" depart="598.00" from="340533303#2" to="334951837#1" type="bicycle"/>
    <trip id="bike300" depart="600.00" from="58741184#1" to="538879492#1" type="bicycle"/>
    <trip id="bike301" depart="602.00" from="340533303#2" to="58741184#1" type="bicycle"/>
    <trip id="bike302" depart="604.00" from="342652996#1" to="58741184#1" type="bicycle"/>
    <trip id="bike303" depart="606.00" from="342652996#1" to="407215251#1" type="bicycle"/>
    <trip id="bike304" depart="608.00" from="58741184#1" to="407215251#1" type="bicycle"/>
    <trip id="bike305" depart="610.00" from="24221150#1" to="-334951835" type="bicycle"/>
    <trip id="bike306" depart="612.00" from="298236444#0" to="24603868#1" type="bicycle"/>
    <trip id="bike307" depart="614.00" from="342652996#0" to="407215251#1" type="bicycle"/>
    <trip id="bike308" depart="616.00" from="24221150#0" to="407215251#1" type="bicycle"/>
    <trip id="bike309" depart="618.00" from="298236444#0" to="24159283#4" type="bicycle"/>
    <trip id="bike310" depart="620.00" from="298236444#0" to="-538879507" type="bicycle"/>
    <trip id="bike311" depart="622.00" from="298236444#1" to="24221150#1" type="bicycle"/>
    <trip id="bike312" depart="624.00" from="302982383#2" to="334951837#1" type="bicycle"/>
    <trip id="bike313" depart="626.00" from="24221150#0" to="24603868#1" type="bicycle"/>
    <trip id="bike314" depart="628.00" from="298236444#0" to="-302298890#0" type="bicycle"/>
    <trip id="bike315" depart="630.00" from="24603868#2" to="334951837#1" type="bicycle"/>
    <trip id="bike316" depart="632.00" from="298236444#0" to="302982383#0" type="bicycle"/>
    <trip id="bike317" depart="634.00" from="58741183#0" to="407215251#1" type="bicycle"/>
    <trip id="bike318" depart="636.00" from="298236444#0" to="219059017#1" type="bicycle"/>
    <trip id="bike319" depart="638.00" from="298236444#0" to="58741179#1" type="bicycle"/>
    <trip id="bike320" depart="640.00" from="-24221150#1" to="334951837#1" type="bicycle"/>
    <trip id="bike321" depart="642.00" from="-538879504" to="58741184#1" type="bicycle"/>
    <trip id="bike322" depart="644.00" from="298236444#0" to="-302982383#2" type="bicycle"/>
    <trip id="bike323" depart="646.00" from="24159283#3" to="-24221150#1" type="bicycle"/>
    <trip id="bike324" depart="648.00" from="298236444#0" to="24603868#1" type="bicycle"/>
    <trip id="bike325" depart="650.00" from="342652996#0" to="334951837#1" type="bicycle"/>