<?xml version="1.0" encoding="UTF-8"?>

<!-- generated on Tue Nov  7 17:10:05 2017 by SUMO duarouter Version svn
<?xml version="1.0" encoding="UTF-8"?>

<configuration xmlns:xsi="http://www.w3.org/2001/XMLSchema-instance" xsi:noNamespaceSchemaLocation="http://sumo.dlr.de/xsd/duarouterConfiguration.xsd">

    <input>
        <net-file value="tests/queens-quay/qq.net.xml"/>
        <route-files value="tests/queens-quay/qq.bicycle.trips.xml"/>
    </input>

    <output>
        <output-file value="tests/queens-quay/qq.bicycle.rou.xml"/>
        <alternatives-output value="tests/queens-quay/qq.bicycle.rou.alt.xml"/>
    </output>

    <processing>
        <ignore-errors value="true"/>
    </processing>

    <time>
        <begin value="0"/>
        <end value="3600"/>
    </time>

    <report>
        <no-warnings value="true"/>
        <no-step-log value="true"/>
    </report>

</configuration>
-->

<routes xmlns:xsi="http://www.w3.org/2001/XMLSchema-instance" xsi:noNamespaceSchemaLocation="http://sumo.dlr.de/xsd/routes_file.xsd">
    <vType id="bicycle" speedFactor="normc(1.00,0.10,0.20,2.00)" vClass="bicycle"/>
    <vehicle id="bike0" type="bicycle" depart="0.00">
        <route edges="-407215251#1 -407215251#0 -538879496#1 -538879496#0 -435288254#1 -435288254#0 -24589812#9 -24589812#8 -24589812#7 41789171#4 302298890#2 302298890#3 302298890#4 302298890#5 445664696 538879500"/>
    </vehicle>
    <vehicle id="bike1" type="bicycle" depart="2.00">
        <route edges="58741184#1 -334951835 -41789169#5 -41789169#4 -41789169#3 -41789169#2 -41789169#1 -41789169#0 407215251#0 407215251#1"/>
    </vehicle>
    <vehicle id="bike2" type="bicycle" depart="4.00">
        <route edges="41789169#1 172869964#0 -172869965#1 -172869965#0 -435288254#0 -538879500 -445664696 -302298890#5 -302298890#4 -302298890#3 -302298890#2 -302298890#1 -302298890#0 -538879504"/>
    </vehicle>
    <vehicle id="bike3" type="bicycle" depart="6.00">
        <route edges="298236444#0 61511564#0 61511564#1 -41789169#5 -41789169#4 -41789169#3 -41789169#2 -41789169#1 -41789169#0 -538879496#1 -538879496#0 -435288254#1 -435288254#0 -538879500 -445664696 -302298890#5 -302298890#4 -302298890#3 -302298890#2 -302298890#1 -302298890#0 -538879504 -340533310#2 -340533310#1 -340533310#0 340533303#1 340533303#2"/>
    </vehicle>
    <vehicle id="bike4" type="bicycle" depart="8.00">
        <route edges="24221150#1 538879507 445664696 538879500 435288254#0 435288254#1 538879496#0 538879496#1 -24589808#2 -24589808#1 -24589808#0 24159283#0 24159283#1 24159283#2 24159283#3"/>
    </vehicle>
    <vehicle id="bike5" type="bicycle" depart="10.00">
        <route edges="58741183#0 58741180 15090081 219059015 219058898#0 219058898#1 445664696 538879500 435288254#0 435288254#1 538879496#0 538879496#1 41789169#0 41789169#1 41789169#2 41789169#3 41789169#4 41789169#5 334951835 334951837#1"/>
    </vehicle>
    <vehicle id="bike6" type="bicycle" depart="12.00">
        <route edges="298236444#0 61511564#0 61511564#1 -41789169#5 -41789169#4 -41789169#3 -41789169#2 -41789169#1 -41789169#0 -538879496#1 -538879496#0 -435288254#1 -435288254#0 -24589812#9 -24589812#8 -24589812#7 41789171#4 302298890#2 302298890#3 302298890#4 302298890#5 445664696 538879500"/>
    </vehicle>
    <vehicle id="bike7" type="bicycle" depart="14.00">
        <route edges="-407215251#1 -407215251#0 -538879496#1 -538879496#0 -435288254#1 -435288254#0 -538879500 -445664696 -302298890#5 -302298890#4 -302298890#3 -302298890#2 -302298890#1 -302298890#0 -538879504"/>
    </vehicle>
    <vehicle id="bike8" type="bicycle" depart="16.00">
        <route edges="298236444#0 61511564#0 61511564#1 -41789169#5 -41789169#4 -41789169#3 -41789169#2 -41789169#1 -41789169#0 -538879496#1 -538879496#0 -435288254#1 -435288254#0 -538879500 -445664696 -302298890#5 -302298890#4 -302298890#3 -302298890#2 -302298890#1 -302298890#0 -538879504 -340533303#1 -340533303#0"/>
    </vehicle>
    <vehicle id="bike9" type="bicycle" depart="18.00">
        <route edges="298236444#0 61511564#0 61511564#1 -41789169#5 -41789169#4 -41789169#3 -41789169#2 -41789169#1 -41789169#0 -538879496#1 -538879496#0 -435288254#1 -435288254#0 -538879500 -445664696 -302298890#5 -302298890#4 -302298890#3 -302298890#2 41789171#5 -24589807#0 342652996#1 538879510 24221150#0 24221150#1"/>
    </vehicle>
    <vehicle id="bike10" type="bicycle" depart="20.00">
        <route edges="334951835 24603868#1 24603868#2 24603868#3 58741180 15090081 219059015 219058898#0 219058898#1 -302298890#5 -302298890#4 -302298890#3 342652996#0"/>
    </vehicle>
    <vehicle id="bike11" type="bicycle" depart="22.00">
        <route edges="-435288254#0 -24589812#9 -24589812#8 -24589812#7 -41789171#3 -41789171#2 24589808#0 24589808#1 24589808#2 41789169#0 41789169#1 41789169#2 41789169#3 41789169#4 41789169#5 334951835 334951837#1"/>
    </vehicle>
    <vehicle id="bike12" type="bicycle" depart="24.00">
        <route edges="298236444#0 61511564#0 61511564#1 -41789169#5 -41789169#4 -41789169#3 -41789169#2 -41789169#1 -41789169#0 -538879496#1 -538879496#0 -435288254#1 -435288254#0 -538879500 -445664696 219059017#0 219059017#1 -219059015 -15090081"/>
    </vehicle>
    <vehicle id="bike13" type="bicycle" depart="26.00">
        <route edges="24603868#1 24603868#2 24603868#3 58741180 15090081 219059015 219058898#0 219058898#1 -302298890#5 -302298890#4 -302298890#3 -302298890#2 -302298890#1 -302298890#0 -538879504"/>
    </vehicle>
    <vehicle id="bike14" type="bicycle" depart="28.00">
        <route edges="24221150#1 538879507 445664696 538879500 435288254#0 435288254#1 538879496#0 538879496#1 41789169#0 41789169#1 41789169#2 41789169#3 41789169#4 41789169#5 334951835 334951837#1"/>
    </vehicle>
    <vehicle id="bike15" type="bicycle" depart="30.00">
        <route edges="298236444#0 61511564#0 61511564#1 -41789169#5 -41789169#4 -41789169#3 -41789169#2 -41789169#1 -41789169#0 -538879496#1 -538879496#0 -435288254#1 -435288254#0 -24589812#9 -24589812#8 -24589812#7 41789171#4 302298890#2 302298890#3 302298890#4 302298890#5 445664696"/>
    </vehicle>
    <vehicle id="bike16" type="bicycle" depart="32.00">
        <route edges="-407215251#1 -407215251#0 -538879496#1 -538879496#0 -435288254#1 -435288254#0 -538879500 -445664696 -302298890#5 -302298890#4 -302298890#3 -302298890#2 41789171#5 -24589807#0 342652996#1 538879510 24221150#0"/>
    </vehicle>
    <vehicle id="bike17" type="bicycle" depart="34.00">
        <route edges="445664696 538879500 435288254#0 435288254#1 538879496#0 538879496#1 407215251#0 407215251#1"/>
    </vehicle>
    <vehicle id="bike18" type="bicycle" depart="36.00">
        <route edges="-58741180 -58741183#0 58741184#0 58741184#1 334951837#1"/>
    </vehicle>
    <vehicle id="bike19" type="bicycle" depart="38.00">
        <route edges="340533303#2 302298890#0 302298890#1 302298890#2 302298890#3 302298890#4 302298890#5 445664696 538879500 435288254#0 435288254#1 538879496#0 538879496#1 538879492#0 -407215251#0 -538879496#1 -538879496#0"/>
    </vehicle>
    <vehicle id="bike20" type="bicycle" depart="40.00">
        <route edges="298236444#0 298236444#1 24603868#1"/>
    </vehicle>
    <vehicle id="bike21" type="bicycle" depart="42.00">
        <route edges="340533303#2 302298890#0 302298890#1 302298890#2 302298890#3 302298890#4 302298890#5 445664696 538879500 435288254#0 435288254#1 538879496#0 538879496#1 538879492#0 -407215251#0 -538879496#1 -538879496#0 -435288254#1"/>
    </vehicle>
    <vehicle id="bike22" type="bicycle" depart="44.00">
        <route edges="298236444#0 298236444#1 24603868#1 24603868#2 24603868#3 58741179#1"/>
    </vehicle>
    <vehicle id="bike23" type="bicycle" depart="46.00">
        <route edges="58741184#1 -334951835 -41789169#5 -41789169#4 -41789169#3 -41789169#2 -41789169#1 -41789169#0 -538879496#1 -538879496#0 -435288254#1 -435288254#0 -538879500 -445664696 -302298890#5 -302298890#4 -302298890#3 -302298890#2 -302298890#1 -302298890#0 -538879504"/>
    </vehicle>
    <vehicle id="bike24" type="bicycle" depart="48.00">
        <route edges="61511564#0 61511564#1 -41789169#5 -41789169#4 -41789169#3 -41789169#2 -41789169#1 -41789169#0 -538879496#1 -538879496#0 -435288254#1 -435288254#0 -538879500 -445664696 -302298890#5 -302298890#4 -302298890#3 -302298890#2 41789171#5 -24589807#0 342652996#1 538879510 24221150#0 24221150#1"/>
    </vehicle>
    <vehicle id="bike25" type="bicycle" depart="50.00">
        <route edges="340533303#2 302298890#0 302298890#1 302298890#2 302298890#3 302298890#4 302298890#5 445664696 538879500 435288254#0 435288254#1 538879496#0 538879496#1 41789169#0 41789169#1 41789169#2 41789169#3 41789169#4 41789169#5 334951835 334951837#1"/>
    </vehicle>
    <vehicle id="bike26" type="bicycle" depart="52.00">
        <route edges="-302982383#0 -24159283#3 -24159283#2 -24159283#1 -24159283#0 24589808#0 24589808#1 24589808#2 -538879496#1 -538879496#0 -435288254#1 -435288254#0 -538879500 -445664696 -302298890#5 -302298890#4 -302298890#3 -302298890#2 -302298890#1 -302298890#0 -538879504"/>
    </vehicle>
    <vehicle id="bike27" type="bicycle" depart="54.00">
        <route edges="24603868#1 24603868#2 24603868#3 58741180 15090081 219059015 219058898#0 219058898#1 -302298890#5 -302298890#4 -302298890#3 -302298890#2 41789171#5 -24589807#0 342652996#1"/>
    </vehicle>
    <vehicle id="bike28" type="bicycle" depart="56.00">
        <route edges="-41789169#2 -41789169#1 -41789169#0 -538879496#1 -538879496#0 -435288254#1 -435288254#0 -538879500 -445664696 -538879507 -24221150#1"/>
    </vehicle>
    <vehicle id="bike29" type="bicycle" depart="58.00">
        <route edges="-302298890#0 -538879504 -340533310#2 -340533310#1 -340533310#0 340533303#1 340533303#2 302298890#0 302298890#1 302298890#2 302298890#3 302298890#4 302298890#5 445664696 538879500 435288254#0 435288254#1 538879496#0 538879496#1 41789169#0 41789169#1 41789169#2 41789169#3 41789169#4 41789169#5 334951835 45476401#1"/>
    </vehicle>
    <vehicle id="bike30" type="bicycle" depart="60.00">
        <route edges="342652996#1 538879510 24221150#0 24221150#1 538879507 445664696 538879500 435288254#0 435288254#1 538879496#0 538879496#1 41789169#0 41789169#1 41789169#2 41789169#3 41789169#4 41789169#5 334951835"/>
    </vehicle>
    <vehicle id="bike31" type="bicycle" depart="62.00">
        <route edges="342652996#1 538879510 24221150#0 24221150#1 538879507 445664696 538879500 435288254#0 435288254#1 538879496#0 538879496#1 407215251#0 407215251#1"/>
    </vehicle>
    <vehicle id="bike32" type="bicycle" depart="64.00">
        <route edges="298236444#0 61511564#0 61511564#1 -41789169#5 -41789169#4 -41789169#3 -41789169#2 -41789169#1 -41789169#0 -538879496#1 -538879496#0 -435288254#1 -435288254#0 -538879500 -445664696 -538879507"/>
    </vehicle>
    <vehicle id="bike33" type="bicycle" depart="66.00">
        <route edges="-445664696 -302298890#5 -302298890#4 -302298890#3 -302298890#2 41789171#5 -24589807#0 342652996#1"/>
    </vehicle>
    <vehicle id="bike34" type="bicycle" depart="68.00">
        <route edges="340533303#2 302298890#0 302298890#1 302298890#2 302298890#3 302298890#4 302298890#5 219059017#0 219059017#1 -219059015 -15090081 -58741180 -58741183#0 58741184#0 58741184#1"/>
    </vehicle>
    <vehicle id="bike36" type="bicycle" depart="72.00">
        <route edges="-24159283#3 -24159283#2 -24159283#1 -24159283#0 24589808#0 24589808#1 24589808#2 -538879496#1 -538879496#0 -435288254#1 -435288254#0 -538879500 -445664696 -302298890#5 -302298890#4 -302298890#3 -302298890#2 -302298890#1 -302298890#0 -538879504 -340533303#1 -340533303#0"/>
    </vehicle>
    <vehicle id="bike37" type="bicycle" depart="74.00">
        <route edges="24603868#1 24603868#2 24603868#3 58741180 15090081 219059015 219058898#0 219058898#1 -302298890#5 -302298890#4 -302298890#3 -302298890#2 -302298890#1 -302298890#0 -538879504"/>
    </vehicle>
    <vehicle id="bike38" type="bicycle" depart="76.00">
        <route edges="298236444#1 24603868#1 24603868#2 24603868#3 58741179#1"/>
    </vehicle>
    <vehicle id="bike39" type="bicycle" depart="78.00">
        <route edges="24603868#1 24603868#2 24603868#3 58741180 15090081 219059015 219058898#0 219058898#1 -302298890#5 -302298890#4 -302298890#3 342652996#0"/>
    </vehicle>
    <vehicle id="bike40" type="bicycle" depart="80.00">
        <route edges="58741184#1 -334951835 -41789169#5 -41789169#4 -41789169#3 -41789169#2 -41789169#1 -41789169#0 407215251#0 407215251#1"/>
    </vehicle>
    <vehicle id="bike41" type="bicycle" depart="82.00">
        <route edges="298236444#0 298236444#1 24603868#1 24603868#2 24603868#3 58741180 15090081 219059015 219058898#0"/>
    </vehicle>
    <vehicle id="bike42" type="bicycle" depart="84.00">
        <route edges="15090081 219059015 219058898#0 219058898#1 445664696 538879500 435288254#0 435288254#1 538879496#0 538879496#1 41789169#0 41789169#1 41789169#2 41789169#3 41789169#4 41789169#5 334951835 334951837#1"/>
    </vehicle>
    <vehicle id="bike43" type="bicycle" depart="86.00">
        <route edges="298236444#0 61511564#0 61511564#1 -41789169#5 -41789169#4 -41789169#3 -41789169#2 -41789169#1 -41789169#0 -538879496#1 -538879496#0 -435288254#1 -435288254#0 -538879500 -445664696 219059017#0 219059017#1 -219059015"/>
    </vehicle>
    <vehicle id="bike44" type="bicycle" depart="88.00">
        <route edges="298236444#0 298236444#1 24603868#1"/>
    </vehicle>
    <vehicle id="bike45" type="bicycle" depart="90.00">
        <route edges="342652996#1 538879510 24221150#0 24221150#1 538879507 445664696 538879500 435288254#0 435288254#1 538879496#0 538879496#1 41789169#0 41789169#1 41789169#2 41789169#3 41789169#4 41789169#5 334951835 334951838"/>
    </vehicle>
    <vehicle id="bike46" type="bicycle" depart="92.00">
        <route edges="340533303#2 302298890#0 302298890#1 302298890#2 302298890#3 302298890#4 302298890#5 445664696 538879500 435288254#0 435288254#1 538879496#0 538879496#1 407215251#0 407215251#1"/>
    </vehicle>
    <vehicle id="bike47" type="bicycle" depart="94.00">
        <route edges="298236444#0 298236444#1 24603868#1"/>
    </vehicle>
    <vehicle id="bike48" type="bicycle" depart="96.00">
        <route edges="302298890#0 302298890#1 302298890#2 302298890#3 302298890#4 302298890#5 445664696 538879500 435288254#0 435288254#1 538879496#0 538879496#1 41789169#0 41789169#1 41789169#2 41789169#3 41789169#4 41789169#5 334951835 334951837#1"/>
    </vehicle>
    <vehicle id="bike49" type="bicycle" depart="98.00">
        <route edges="298236444#0 61511564#0 61511564#1 -41789169#5 -41789169#4 -41789169#3 -41789169#2 -41789169#1 -41789169#0 -538879496#1 -538879496#0 -435288254#1 -435288254#0 -538879500 -445664696 -302298890#5 -302298890#4 -302298890#3 -302298890#2 -302298890#1 -302298890#0 -538879504"/>
    </vehicle>
    <vehicle id="bike51" type="bicycle" depart="102.00">
        <route edges="342652996#1 538879510 24221150#0 24221150#1 538879507 445664696 538879500 435288254#0 435288254#1 538879496#0 538879496#1 41789169#0 41789169#1 41789169#2 41789169#3 41789169#4 41789169#5 334951835 334951838"/>
    </vehicle>
    <vehicle id="bike52" type="bicycle" depart="104.00">
        <route edges="58741183#0 58741180 15090081 219059015 219058898#0 219058898#1 445664696 538879500 435288254#0 435288254#1 538879496#0 538879496#1 41789169#0 41789169#1 41789169#2 41789169#3 41789169#4 41789169#5 334951835 334951837#1"/>
    </vehicle>
    <vehicle id="bike53" type="bicycle" depart="106.00">
        <route edges="-407215251#1 -407215251#0 -538879496#1 -538879496#0 -435288254#1 -435288254#0 -538879500 -445664696 -302298890#5 -302298890#4 -302298890#3 -302298890#2 -302298890#1 -302298890#0 -538879504 -340533310#2 -340533310#1 -340533310#0 340533303#1 340533303#2"/>
    </vehicle>
    <vehicle id="bike54" type="bicycle" depart="108.00">
        <route edges="340533303#2 302298890#0 302298890#1 302298890#2 302298890#3 302298890#4 302298890#5 445664696 538879500 435288254#0 435288254#1 538879496#0 538879496#1 -24589808#2 -24589808#1 -24589808#0 24159283#0 24159283#1 -302982383#2 -302982383#1 -302982383#0"/>
    </vehicle>
    <vehicle id="bike55" type="bicycle" depart="110.00">
        <route edges="340533303#2 302298890#0 302298890#1 302298890#2 302298890#3 302298890#4 302298890#5 445664696 538879500 435288254#0 435288254#1 538879496#0 538879496#1 407215251#0 407215251#1"/>
    </vehicle>
    <vehicle id="bike56" type="bicycle" depart="112.00">
        <route edges="219058898#0 219058898#1 445664696 538879500 435288254#0 435288254#1 538879496#0 538879496#1 407215251#0 407215251#1"/>
    </vehicle>
    <vehicle id="bike57" type="bicycle" depart="114.00">
        <route edges="298236444#0 61511564#0 61511564#1 -41789169#5 -41789169#4 -41789169#3 -41789169#2 -41789169#1 -41789169#0 -538879496#1 -538879496#0 -435288254#1 -435288254#0 -538879500 -445664696"/>
    </vehicle>
    <vehicle id="bike58" type="bicycle" depart="116.00">
        <route edges="342652996#0 24589807#0 -41789171#5 302298890#2 302298890#3 302298890#4 302298890#5 445664696 538879500 435288254#0 435288254#1 538879496#0 538879496#1 41789169#0 41789169#1 41789169#2 41789169#3 41789169#4 41789169#5 334951835 334951837#1"/>
    </vehicle>
    <vehicle id="bike59" type="bicycle" depart="118.00">
        <route edges="340533303#2 302298890#0 302298890#1 302298890#2 302298890#3 302298890#4 302298890#5 445664696 538879500 435288254#0 435288254#1 538879496#0 538879496#1 538879492#0 -407215251#0 -538879496#1 -538879496#0 -435288254#1"/>
    </vehicle>
    <vehicle id="bike60" type="bicycle" depart="120.00">
        <route edges="340533303#2 302298890#0 302298890#1 302298890#2 302298890#3 302298890#4 302298890#5 445664696 538879500 435288254#0 435288254#1 538879496#0 538879496#1 41789169#0 41789169#1 41789169#2 41789169#3 41789169#4 41789169#5 334951835 24603868#1"/>
    </vehicle>
    <vehicle id="bike61" type="bicycle" depart="122.00">
        <route edges="58741184#1 334951837#1"/>
    </vehicle>
    <vehicle id="bike62" type="bicycle" depart="124.00">
        <route edges="340533303#2 302298890#0 302298890#1 302298890#2 302298890#3 302298890#4 302298890#5 445664696 538879500 435288254#0 435288254#1 538879496#0 538879496#1 41789169#0 41789169#1 41789169#2 41789169#3 41789169#4 41789169#5 334951835 334951837#1"/>
    </vehicle>
    <vehicle id="bike63" type="bicycle" depart="126.00">
        <route edges="298236444#0 61511564#0 61511564#1 -41789169#5 -41789169#4 -41789169#3 -41789169#2 -41789169#1 -41789169#0 -538879496#1 -538879496#0 -435288254#1 -435288254#0 -538879500 -445664696 -302298890#5 -302298890#4 -302298890#3 -302298890#2 41789171#5 -24589807#0 342652996#1 538879510 24221150#0 24221150#1 538879507"/>
    </vehicle>
    <vehicle id="bike64" type="bicycle" depart="128.00">
        <route edges="435288254#1 538879496#0 538879496#1 538879492#0 -407215251#0 -538879496#1 -538879496#0 -435288254#1 -435288254#0 -538879500 -445664696 -538879507 -24221150#1"/>
    </vehicle>
    <vehicle id="bike65" type="bicycle" depart="130.00">
        <route edges="298236444#0 61511564#0 61511564#1 -41789169#5 -41789169#4 -41789169#3 -41789169#2 -41789169#1 -41789169#0 -538879496#1 -538879496#0 -435288254#1 -435288254#0 -538879500 -445664696 -538879507"/>
    </vehicle>
    <vehicle id="bike66" type="bicycle" depart="132.00">
        <route edges="24159283#3 302982383#0 302982383#1 302982383#2 -24159283#1 -24159283#0 24589808#0 24589808#1 24589808#2 -538879496#1 -538879496#0 -435288254#1 -435288254#0 -538879500 -445664696 -538879507 -24221150#1"/>
    </vehicle>
    <vehicle id="bike67" type="bicycle" depart="134.00">
        <route edges="298236444#0 298236444#1 24603868#1"/>
    </vehicle>
    <vehicle id="bike68" type="bicycle" depart="136.00">
        <route edges="298236444#0 298236444#1 24603868#1"/>
    </vehicle>
    <vehicle id="bike69" type="bicycle" depart="138.00">
        <route edges="298236444#0 61511564#0 61511564#1 -41789169#5 -41789169#4 -41789169#3 -41789169#2 -41789169#1 -41789169#0 -538879496#1 -538879496#0 -435288254#1 -435288254#0 -538879500 -445664696 219059017#0 219059017#1 -219059015 -15090081 -58741180"/>
    </vehicle>
    <vehicle id="bike70" type="bicycle" depart="140.00">
        <route edges="298236444#0 61511564#0 61511564#1 -41789169#5 -41789169#4 -41789169#3 -41789169#2 -41789169#1 -41789169#0 -538879496#1 -538879496#0 -435288254#1 -435288254#0 -538879500 -445664696 -302298890#5 -302298890#4 -302298890#3 -302298890#2 -302298890#1 -302298890#0 -538879504"/>
    </vehicle>
    <vehicle id="bike71" type="bicycle" depart="142.00">
        <route edges="340533303#2 302298890#0 302298890#1 302298890#2 302298890#3 302298890#4 302298890#5 445664696 538879500 435288254#0 435288254#1 538879496#0 538879496#1 41789169#0 41789169#1 41789169#2 41789169#3 41789169#4 41789169#5 334951835 334951837#1"/>
    </vehicle>
    <vehicle id="bike72" type="bicycle" depart="144.00">
        <route edges="298236444#0 61511564#0 61511564#1 -41789169#5 -41789169#4 -41789169#3 -41789169#2 -41789169#1 -41789169#0 -24589808#2 -24589808#1 -24589808#0 24159283#0 24159283#1 -302982383#2 -302982383#1 -302982383#0"/>
    </vehicle>
    <vehicle id="bike73" type="bicycle" depart="146.00">
        <route edges="298236444#0 298236444#1 24603868#1"/>
    </vehicle>
    <vehicle id="bike74" type="bicycle" depart="148.00">
        <route edges="298236444#0 298236444#1 24603868#1"/>
    </vehicle>
    <vehicle id="bike75" type="bicycle" depart="150.00">
        <route edges="298236444#0 61511564#0 61511564#1 -41789169#5 -41789169#4 -41789169#3 -41789169#2 -41789169#1 -41789169#0 -538879496#1 -538879496#0 -435288254#1 -435288254#0 -538879500 -445664696 -302298890#5 -302298890#4 -302298890#3 -302298890#2 41789171#5 -24589807#0 342652996#1 538879510 24221150#0 24221150#1 538879507"/>
    </vehicle>
    <vehicle id="bike76" type="bicycle" depart="152.00">
        <route edges="24603868#1 24603868#2 24603868#3 58741180 15090081 219059015 219058898#0 219058898#1 -538879507 -24221150#1"/>
    </vehicle>
    <vehicle id="bike77" type="bicycle" depart="154.00">
        <route edges="298236444#0 61511564#0 61511564#1 -41789169#5 -41789169#4 -41789169#3 -41789169#2 -41789169#1 -41789169#0 -24589808#2 -24589808#1 -24589808#0 24159283#0 24159283#1 -302982383#2 -302982383#1"/>
    </vehicle>
    <vehicle id="bike78" type="bicycle" depart="156.00">
        <route edges="298236444#0 61511564#0 61511564#1 -41789169#5 -41789169#4 -41789169#3 -41789169#2 -41789169#1 -41789169#0 -538879496#1 -538879496#0 -435288254#1 -435288254#0 -538879500 -445664696 -302298890#5 -302298890#4 -302298890#3 -302298890#2 -302298890#1 -302298890#0 -538879504"/>
    </vehicle>
    <vehicle id="bike79" type="bicycle" depart="158.00">
        <route edges="340533303#2 302298890#0 302298890#1 302298890#2 302298890#3 302298890#4 302298890#5 445664696 538879500 435288254#0 435288254#1 538879496#0 538879496#1 41789169#0 41789169#1 41789169#2 41789169#3 41789169#4 41789169#5 334951835 24603868#1"/>
    </vehicle>
    <vehicle id="bike80" type="bicycle" depart="160.00">
        <route edges="58741183#0 58741180 15090081 219059015 219058898#0 219058898#1 445664696 538879500 435288254#0 435288254#1 538879496#0 538879496#1 -24589808#2 -24589808#1 -24589808#0 24159283#0 24159283#1 -302982383#2 -302982383#1 -302982383#0 -24159283#3"/>
    </vehicle>
    <vehicle id="bike81" type="bicycle" depart="162.00">
        <route edges="298236444#0 61511564#0 61511564#1 -41789169#5 -41789169#4 -41789169#3 -41789169#2 -41789169#1 -41789169#0 -24589808#2 -24589808#1 -24589808#0 24159283#0 24159283#1 -302982383#2 -302982383#1 -302982383#0"/>
    </vehicle>
    <vehicle id="bike82" type="bicycle" depart="164.00">
        <route edges="298236444#0 61511564#0 61511564#1 -41789169#5 -41789169#4 -41789169#3 -41789169#2 -41789169#1 -41789169#0 -24589808#2 -24589808#1 -24589808#0 24159283#0 24159283#1 -302982383#2 -302982383#1 -302982383#0 -24159283#3 -24159283#2"/>
    </vehicle>
    <vehicle id="bike83" type="bicycle" depart="166.00">
        <route edges="58741184#1 -334951835 -41789169#5 -41789169#4 -41789169#3 -41789169#2 -41789169#1 -41789169#0 -24589808#2 -24589808#1 -24589808#0 24159283#0 24159283#1 24159283#2 24159283#3"/>
    </vehicle>
    <vehicle id="bike84" type="bicycle" depart="168.00">
        <route edges="58741184#1 -334951835 -41789169#5 -41789169#4 -41789169#3 -41789169#2 -41789169#1 -41789169#0 -24589808#2 -24589808#1 -24589808#0 24159283#0 24159283#1 24159283#2 24159283#3"/>
    </vehicle>
    <vehicle id="bike85" type="bicycle" depart="170.00">
        <route edges="-538879500 -445664696 -302298890#5 -302298890#4 -302298890#3 -302298890#2 41789171#5 -24589807#0 342652996#1"/>
    </vehicle>
    <vehicle id="bike86" type="bicycle" depart="172.00">
        <route edges="24221150#1 538879507 445664696 538879500 435288254#0 435288254#1 538879496#0 538879496#1 -24589808#2 -24589808#1 -24589808#0 24159283#0 24159283#1 -302982383#2"/>
    </vehicle>
    <vehicle id="bike87" type="bicycle" depart="174.00">
        <route edges="24603868#2 24603868#3 58741180 15090081 219059015 219058898#0 219058898#1 -538879507 -24221150#1 -24221150#0 -538879510"/>
    </vehicle>
    <vehicle id="bike88" type="bicycle" depart="176.00">
        <route edges="538879500 435288254#0 435288254#1 538879496#0 538879496#1 41789169#0 41789169#1 41789169#2 41789169#3 41789169#4 41789169#5 334951835 334951837#1"/>
    </vehicle>
    <vehicle id="bike89" type="bicycle" depart="178.00">
        <route edges="298236444#0 61511564#0 61511564#1 -41789169#5 -41789169#4 -41789169#3 -41789169#2 -41789169#1 -41789169#0 -538879496#1 -538879496#0 -435288254#1 -435288254#0 -538879500 -445664696 -302298890#5 -302298890#4 -302298890#3 -302298890#2 -302298890#1 -302298890#0 -538879504 -340533310#2 -340533310#1 -340533310#0 340533303#1 340533303#2 302298890#0"/>
    </vehicle>
    <vehicle id="bike90" type="bicycle" depart="180.00">
        <route edges="58741184#1 -334951835 -41789169#5 -41789169#4 -41789169#3 -41789169#2 -41789169#1 -41789169#0 407215251#0 407215251#1"/>
    </vehicle>
    <vehicle id="bike92" type="bicycle" depart="184.00">
        <route edges="24221150#0 24221150#1 538879507 219059017#0 219059017#1 -219059015 -15090081 -58741180 -58741183#0 58741184#0 58741184#1"/>
    </vehicle>
    <vehicle id="bike93" type="bicycle" depart="186.00">
        <route edges="298236444#0 61511564#0 61511564#1 -41789169#5 -41789169#4 -41789169#3 -41789169#2 -41789169#1 -41789169#0 -24589808#2 -24589808#1 -24589808#0 24159283#0 24159283#1 -302982383#2 -302982383#1 -302982383#0"/>
    </vehicle>
    <vehicle id="bike94" type="bicycle" depart="188.00">
        <route edges="298236444#0 61511564#0 61511564#1 -41789169#5 -41789169#4 -41789169#3 -41789169#2 -41789169#1 -41789169#0 -538879496#1 -538879496#0 -435288254#1 -435288254#0 -538879500 -445664696 -538879507"/>
    </vehicle>
    <vehicle id="bike95" type="bicycle" depart="190.00">
        <route edges="58741184#1 -334951835 -41789169#5 -41789169#4 -41789169#3 -41789169#2 -41789169#1 -41789169#0 407215251#0 407215251#1"/>
    </vehicle>
    <vehicle id="bike96" type="bicycle" depart="192.00">
        <route edges="298236444#0 298236444#1 24603868#1"/>
    </vehicle>
    <vehicle id="bike97" type="bicycle" depart="194.00">
        <route edges="340533303#2 302298890#0 302298890#1 302298890#2 302298890#3 302298890#4 302298890#5 445664696 538879500 435288254#0 435288254#1 538879496#0"/>
    </vehicle>
    <vehicle id="bike98" type="bicycle" depart="196.00">
        <route edges="298236444#0 298236444#1 24603868#1"/>
    </vehicle>
    <vehicle id="bike99" type="bicycle" depart="198.00">
        <route edges="-302982383#1 -302982383#0 -24159283#3 -24159283#2 -24159283#1 -24159283#0 24589808#0 24589808#1 24589808#2 41789169#0 41789169#1 41789169#2 41789169#3 41789169#4 41789169#5 334951835 334951837#1"/>
    </vehicle>
    <vehicle id="bike100" type="bicycle" depart="200.00">
        <route edges="340533303#2 302298890#0 302298890#1 302298890#2 302298890#3 302298890#4 302298890#5 445664696 538879500 435288254#0 435288254#1 538879496#0 538879496#1 41789169#0 41789169#1 41789169#2 41789169#3 41789169#4 41789169#5 334951835 334951837#1"/>
    </vehicle>
    <vehicle id="bike101" type="bicycle" depart="202.00">
        <route edges="302982383#0 302982383#1 302982383#2 -24159283#1 -24159283#0 24589808#0 24589808#1 24589808#2 41789169#0 41789169#1 41789169#2 41789169#3 41789169#4 41789169#5 334951835 334951837#1"/>
    </vehicle>
    <vehicle id="bike102" type="bicycle" depart="204.00">
        <route edges="298236444#0 61511564#0 61511564#1 -41789169#5 -41789169#4 -41789169#3 -41789169#2 -41789169#1 -41789169#0 -538879496#1 -538879496#0 -435288254#1 -435288254#0 -24589812#9 -24589812#8 -24589812#7 41789171#4 302298890#2 302298890#3 302298890#4 302298890#5 445664696"/>
    </vehicle>
    <vehicle id="bike103" type="bicycle" depart="206.00">
        <route edges="58741184#1 334951837#1"/>
    </vehicle>
    <vehicle id="bike104" type="bicycle" depart="208.00">
        <route edges="298236444#0 61511564#0 61511564#1 -41789169#5 -41789169#4 -41789169#3 -41789169#2 -41789169#1 -41789169#0 -538879496#1 -538879496#0 -435288254#1 -435288254#0 -538879500 -445664696 -538879507 -24221150#1 -24221150#0 -538879510"/>
    </vehicle>
    <vehicle id="bike105" type="bicycle" depart="210.00">
        <route edges="340533303#2 302298890#0 302298890#1 302298890#2 302298890#3 302298890#4 302298890#5 219059017#0 219059017#1 -219059015 -15090081 -58741180 -58741183#0 58741184#0 58741184#1"/>
    </vehicle>
    <vehicle id="bike107" type="bicycle" depart="214.00">
        <route edges="302298890#0 302298890#1 302298890#2 302298890#3 302298890#4 302298890#5 219059017#0 219059017#1 -219059015 -15090081 -58741180 -58741183#0 58741184#0 58741184#1"/>
    </vehicle>
    <vehicle id="bike108" type="bicycle" depart="216.00">