<?xml version="1.0" encoding="UTF-8"?>

<!-- generated on Thu Nov  9 10:55:02 2017 by SUMO netconvert Version svn
<?xml version="1.0" encoding="UTF-8"?>

<configuration xmlns:xsi="http://www.w3.org/2001/XMLSchema-instance" xsi:noNamespaceSchemaLocation="http://sumo.dlr.de/xsd/netconvertConfiguration.xsd">

    <input>
        <type-files value="osmNetConvertToronto.typ.xml"/>
        <osm-files value="tests/queens-quay/qq.osm.xml"/>
    </input>

    <output>
        <output-file value="tests/queens-quay/qq.net.xml"/>
        <output.street-names value="true"/>
        <output.original-names value="true"/>
    </output>

    <projection>
        <proj.utm value="true"/>
    </projection>

    <tls_building>
        <tls.discard-simple value="true"/>
        <tls.join value="true"/>
        <tls.guess-signals value="true"/>
        <tls.default-type value="actuated"/>
    </tls_building>

    <ramp_guessing>
        <ramps.guess value="true"/>
    </ramp_guessing>

    <processing>
        <osm.elevation value="true"/>
        <osm.layer-elevation value="6"/>
        <no-turnarounds value="true"/>
        <no-turnarounds.tls value="true"/>
        <geometry.remove value="true"/>
        <roundabouts.guess value="true"/>
    </processing>

    <report>
        <verbose value="true"/>
    </report>

</configuration>
-->

<net version="0.27" xmlns:xsi="http://www.w3.org/2001/XMLSchema-instance" xsi:noNamespaceSchemaLocation="http://sumo.dlr.de/xsd/net_file.xsd">

    <location netOffset="-629702.71,-4832948.03" convBoundary="0.00,0.00,1941.01,1023.44" origBoundary="-79.391978,43.638134,-79.367753,43.647348" projParameter="+proj=utm +zone=17 +ellps=WGS84 +datum=WGS84 +units=m +no_defs"/>

    <type id="cycleway.lane" allow="bicycle" bikeLaneWidth="1.00"/>
    <type id="cycleway.lane|highway.tertiary" priority="6" numLanes="1" speed="13.90" disallow="tram rail_urban rail rail_electric ship" oneway="0" bikeLaneWidth="1.00"/>
    <type id="cycleway.opposite_lane" allow="bicycle" bikeLaneWidth="1.00"/>
    <type id="cycleway.opposite_track" allow="bicycle" bikeLaneWidth="1.50"/>
    <type id="cycleway.track" allow="bicycle" bikeLaneWidth="1.50"/>
    <type id="highway.bridleway" priority="1" numLanes="1" speed="2.78" allow="pedestrian" oneway="1" width="2.00"/>
    <type id="highway.bus_guideway" priority="1" numLanes="1" speed="8.33" allow="bus" oneway="1"/>
    <type id="highway.cycleway" priority="1" numLanes="1" speed="5.56" allow="bicycle" oneway="0" width="1.00"/>
    <type id="highway.footway" priority="1" numLanes="1" speed="2.78" allow="pedestrian" oneway="1" width="2.00"/>
    <type id="highway.ford" priority="1" numLanes="1" speed="2.78" allow="army" oneway="0"/>
    <type id="highway.living_street" priority="3" numLanes="1" speed="2.78" disallow="tram rail_urban rail rail_electric ship" oneway="0"/>
    <type id="highway.motorway" priority="13" numLanes="2" speed="27.78" allow="private emergency authority army vip passenger hov taxi bus coach delivery truck trailer motorcycle evehicle custom1 custom2" oneway="1"/>
    <type id="highway.motorway_link" priority="12" numLanes="1" speed="16.67" allow="private emergency authority army vip passenger hov taxi bus coach delivery truck trailer motorcycle evehicle custom1 custom2" oneway="1"/>
    <type id="highway.path" priority="1" numLanes="1" speed="2.78" allow="bicycle pedestrian" oneway="1" width="2.00"/>
    <type id="highway.pedestrian" priority="1" numLanes="1" speed="2.78" allow="pedestrian" oneway="1" width="2.00"/>
    <type id="highway.primary" priority="9" numLanes="2" speed="13.89" disallow="tram rail_urban rail rail_electric pedestrian ship" oneway="0"/>
    <type id="highway.primary_link" priority="8" numLanes="1" speed="13.89" disallow="tram rail_urban rail rail_electric pedestrian ship" oneway="0"/>
    <type id="highway.raceway" priority="14" numLanes="2" speed="83.33" allow="vip" oneway="0"/>
    <type id="highway.residential" priority="4" numLanes="1" speed="13.89" disallow="tram rail_urban rail rail_electric ship" oneway="0"/>
    <type id="highway.secondary" priority="7" numLanes="2" speed="13.89" disallow="tram rail_urban rail rail_electric pedestrian ship" oneway="0"/>
    <type id="highway.secondary_link" priority="6" numLanes="1" speed="13.89" disallow="tram rail_urban rail rail_electric pedestrian ship" oneway="0"/>
    <type id="highway.service" priority="2" numLanes="1" speed="5.56" allow="delivery bicycle pedestrian" oneway="0"/>
    <type id="highway.services" priority="1" numLanes="1" speed="8.33" disallow="tram rail_urban rail rail_electric ship" oneway="0"/>
    <type id="highway.stairs" priority="1" numLanes="1" speed="1.39" allow="pedestrian" oneway="1" width="2.00"/>
    <type id="highway.step" priority="1" numLanes="1" speed="1.39" allow="pedestrian" oneway="1" width="2.00"/>
    <type id="highway.steps" priority="1" numLanes="1" speed="1.39" allow="pedestrian" oneway="1" width="2.00"/>
    <type id="highway.tertiary" priority="6" numLanes="1" speed="13.89" disallow="tram rail_urban rail rail_electric ship" oneway="0"/>
    <type id="highway.tertiary_link" priority="5" numLanes="1" speed="13.89" disallow="tram rail_urban rail rail_electric ship" oneway="0"/>
    <type id="highway.track" priority="1" numLanes="1" speed="5.56" disallow="tram rail_urban rail rail_electric ship" oneway="0"/>
    <type id="highway.trunk" priority="11" numLanes="2" speed="13.89" disallow="tram rail_urban rail rail_electric bicycle pedestrian ship" oneway="0"/>
    <type id="highway.trunk_link" priority="10" numLanes="1" speed="13.89" disallow="tram rail_urban rail rail_electric bicycle pedestrian ship" oneway="0"/>
    <type id="highway.unclassified" priority="5" numLanes="1" speed="13.89" disallow="tram rail_urban rail rail_electric ship" oneway="0"/>
    <type id="highway.unsurfaced" priority="1" numLanes="1" speed="8.33" disallow="tram rail_urban rail rail_electric ship" oneway="0"/>
    <type id="railway.light_rail" priority="15" numLanes="1" speed="27.78" allow="rail_urban" oneway="1"/>
    <type id="railway.preserved" priority="15" numLanes="1" speed="27.78" allow="rail" oneway="1"/>
    <type id="railway.rail" priority="15" numLanes="1" speed="83.33" allow="rail rail_electric" oneway="1"/>
    <type id="railway.subway" priority="15" numLanes="1" speed="27.78" allow="rail_urban" oneway="1"/>
    <type id="railway.tram" priority="15" numLanes="1" speed="13.89" allow="tram" oneway="1"/>

    <edge id=":1837175782_0" function="internal">
        <lane id=":1837175782_0_0" index="0" allow="delivery bicycle pedestrian" speed="8.34" length="5.03" shape="813.56,185.59 812.19,185.42 811.10,185.74 810.29,186.54 809.77,187.82"/>
    </edge>
    <edge id=":1837175782_1" function="internal">
        <lane id=":1837175782_1_0" index="0" disallow="tram rail_urban rail rail_electric pedestrian ship" speed="11.11" length="9.57" shape="813.56,185.59 804.26,183.30"/>
    </edge>
    <edge id=":1837175782_2" function="internal">
        <lane id=":1837175782_2_0" index="0" disallow="tram rail_urban rail rail_electric pedestrian ship" speed="11.11" length="9.80" shape="805.69,176.86 815.28,179.21"/>
        <lane id=":1837175782_2_1" index="1" disallow="tram rail_urban rail rail_electric pedestrian ship" speed="11.11" length="9.80" shape="804.97,180.08 814.42,182.40"/>
    </edge>
    <edge id=":1837175782_4" function="internal">
        <lane id=":1837175782_4_0" index="0" allow="delivery bicycle pedestrian" speed="8.34" length="5.44" shape="804.97,180.08 807.66,181.09 809.36,182.72 809.42,182.92"/>
    </edge>
    <edge id=":1837175782_7" function="internal">
        <lane id=":1837175782_7_0" index="0" speed="8.34" length="5.01" shape="809.42,182.92 810.06,184.96 809.77,187.82"/>
    </edge>
    <edge id=":1837175782_5" function="internal">
        <lane id=":1837175782_5_0" index="0" disallow="tram rail_urban rail rail_electric pedestrian ship" speed="8.34" length="5.03" shape="806.57,187.03 806.71,185.65 806.37,184.57 805.55,183.79 804.26,183.30"/>
    </edge>
    <edge id=":1837175782_6" function="internal">
        <lane id=":1837175782_6_0" index="0" disallow="tram rail_urban rail rail_electric pedestrian ship" speed="8.34" length="10.44" shape="806.57,187.03 807.65,184.37 809.32,182.71 811.57,182.05 814.42,182.40"/>
    </edge>
    <edge id=":1837175847_0" function="internal">
        <lane id=":1837175847_0_0" index="0" allow="delivery bicycle pedestrian" speed="5.56" length="10.49" shape="801.04,235.70 798.11,234.88 796.03,234.17 794.01,233.30 791.26,231.98"/>
    </edge>
    <edge id=":1837175847_1" function="internal">
        <lane id=":1837175847_1_0" index="0" allow="delivery bicycle pedestrian" speed="5.56" length="10.90" shape="801.04,235.70 798.48,234.55 796.90,232.75 796.29,230.28 796.66,227.15"/>
    </edge>
    <edge id=":1837175847_2" function="internal">
        <lane id=":1837175847_2_0" index="0" allow="delivery bicycle pedestrian" speed="5.56" length="5.65" shape="799.86,227.94 799.64,229.64 799.90,230.97 800.66,231.93 801.89,232.51"/>
    </edge>
    <edge id=":1837175847_3" function="internal">
        <lane id=":1837175847_3_0" index="0" allow="delivery bicycle pedestrian" speed="5.56" length="11.44" shape="799.86,227.94 798.65,230.94 796.81,232.61 794.35,232.96 791.26,231.98"/>
    </edge>
    <edge id=":1837175847_4" function="internal">
        <lane id=":1837175847_4_0" index="0" allow="delivery bicycle pedestrian" speed="5.56" length="5.27" shape="792.70,229.01 794.12,229.46 795.25,229.30 796.10,228.53 796.66,227.15"/>
    </edge>
    <edge id=":1837175847_5" function="internal">
        <lane id=":1837175847_5_0" index="0" allow="delivery bicycle pedestrian" speed="5.56" length="9.87" shape="792.70,229.01 795.34,230.28 797.18,231.09 799.08,231.73 801.89,232.51"/>
    </edge>
    <edge id=":2001929614_0" function="internal">
        <lane id=":2001929614_0_0" index="0" disallow="tram rail_urban rail rail_electric ship" speed="4.17" length="6.68" shape="974.16,207.28 969.64,212.26"/>
        <lane id=":2001929614_0_1" index="1" disallow="tram rail_urban rail rail_electric ship" speed="4.17" length="6.68" shape="971.70,205.08 967.24,209.99"/>
    </edge>
    <edge id=":2001929614_2" function="internal">
        <lane id=":2001929614_2_0" index="0" disallow="tram rail_urban rail rail_electric ship" speed="4.17" length="6.55" shape="964.84,207.73 969.24,202.88"/>
    </edge>
    <edge id=":208533279_0" function="internal">
        <lane id=":208533279_0_0" index="0" disallow="tram rail_urban rail rail_electric pedestrian ship" speed="13.89" length="21.93" shape="890.59,390.15 887.85,395.32 884.07,397.64 879.23,397.12 873.35,393.76"/>
    </edge>
    <edge id=":208533279_1" function="internal">
        <lane id=":208533279_1_0" index="0" disallow="tram rail_urban rail rail_electric pedestrian ship" speed="13.89" length="15.27" shape="887.47,389.09 885.59,392.54 882.94,394.03 879.52,393.55 875.33,391.11"/>
    </edge>
    <edge id=":208533279_2" function="internal">
        <lane id=":208533279_2_0" index="0" disallow="tram rail_urban rail rail_electric pedestrian ship" speed="13.89" length="12.16" shape="887.47,389.09 886.13,391.14 883.99,391.72 881.05,390.83 877.31,388.47"/>
    </edge>
    <edge id=":208533280_0" function="internal">
        <lane id=":208533280_0_0" index="0" disallow="tram rail_urban rail rail_electric pedestrian ship" speed="13.89" length="12.68" shape="698.19,286.22 686.85,280.55"/>
    </edge>
    <edge id=":208533280_1" function="internal">
        <lane id=":208533280_1_0" index="0" allow="bicycle" speed="13.89" length="16.29" width="1.00" shape="698.19,286.22 694.53,283.70 692.42,280.60 691.86,276.92 692.85,272.66"/>
    </edge>
    <edge id=":208533280_2" function="internal">
        <lane id=":208533280_2_0" index="0" disallow="tram rail_urban rail rail_electric pedestrian ship" speed="13.89" length="12.71" shape="699.67,283.27 688.32,277.60"/>
        <lane id=":208533280_2_1" index="1" disallow="tram rail_urban rail rail_electric pedestrian ship" speed="13.89" length="12.71" shape="701.16,280.33 689.78,274.64"/>
    </edge>
    <edge id=":208533280_4" function="internal">
        <lane id=":208533280_4_0" index="0" disallow="tram rail_urban rail rail_electric bicycle ship" speed="13.89" length="9.99" shape="701.16,280.33 697.97,278.49 695.86,276.73 694.84,275.05 694.90,273.45"/>
    </edge>
    <edge id=":208533280_5" function="internal">
        <lane id=":208533280_5_0" index="0" allow="bicycle" speed="13.90" length="13.67" width="1.00" shape="700.03,275.44 695.13,288.20"/>
    </edge>
    <edge id=":208533280_6" function="internal">
        <lane id=":208533280_6_0" index="0" disallow="tram rail_urban rail rail_electric pedestrian ship" speed="13.89" length="13.73" shape="700.03,275.44 698.32,278.08 695.80,279.32 692.47,279.16 688.32,277.60"/>
    </edge>
    <edge id=":208533280_7" function="internal">
        <lane id=":208533280_7_0" index="0" disallow="tram rail_urban rail rail_electric bicycle ship" speed="13.90" length="13.68" shape="697.98,274.64 693.07,287.42"/>
    </edge>
    <edge id=":208533280_8" function="internal">
        <lane id=":208533280_8_0" index="0" disallow="tram rail_urban rail rail_electric pedestrian ship" speed="13.89" length="9.16" shape="697.98,274.64 696.97,275.92 695.27,276.35 692.87,275.92 689.78,274.64"/>
    </edge>
    <edge id=":208533280_9" function="internal">
        <lane id=":208533280_9_0" index="0" disallow="tram rail_urban rail rail_electric pedestrian ship" speed="13.89" length="5.58" shape="687.93,285.47 688.39,283.78 688.36,282.40 687.85,281.32 686.85,280.55"/>
    </edge>
    <edge id=":208533280_10" function="internal">
        <lane id=":208533280_10_0" index="0" allow="bicycle" speed="13.90" length="13.72" width="1.00" shape="687.93,285.47 692.85,272.66"/>
    </edge>
    <edge id=":208533280_11" function="internal">
        <lane id=":208533280_11_0" index="0" disallow="tram rail_urban rail rail_electric pedestrian ship" speed="13.89" length="5.57" shape="689.99,286.25 690.82,283.24 690.82,280.79"/>
    </edge>
    <edge id=":208533280_12" function="internal">
        <lane id=":208533280_12_0" index="0" disallow="tram rail_urban rail rail_electric bicycle ship" speed="13.90" length="13.71" shape="689.99,286.25 694.90,273.45"/>
    </edge>
    <edge id=":208533280_13" function="internal">
        <lane id=":208533280_13_0" index="0" speed="13.89" length="4.18" shape="690.82,280.79 689.99,278.91 688.32,277.60"/>
    </edge>
    <edge id=":21099015_0" function="internal">
        <lane id=":21099015_0_0" index="0" disallow="tram rail_urban rail rail_electric pedestrian ship" speed="13.89" length="13.17" shape="912.61,323.36 908.78,336.01"/>
        <lane id=":21099015_0_1" index="1" disallow="tram rail_urban rail rail_electric pedestrian ship" speed="13.89" length="13.17" shape="909.44,322.45 905.64,335.01"/>
    </edge>
    <edge id=":21099015_2" function="internal">
        <lane id=":21099015_2_0" index="0" disallow="tram rail_urban rail rail_electric pedestrian ship" speed="13.89" length="7.28" shape="899.91,322.55 902.36,323.27 904.23,323.34 905.53,322.76 906.27,321.53"/>
    </edge>
    <edge id=":21099015_3" function="internal">
        <lane id=":21099015_3_0" index="0" disallow="tram rail_urban rail rail_electric pedestrian ship" speed="13.89" length="15.22" shape="899.91,322.55 914.14,328.15"/>
        <lane id=":21099015_3_1" index="1" disallow="tram rail_urban rail rail_electric pedestrian ship" speed="13.89" length="15.22" shape="898.73,325.64 912.90,331.21"/>
        <lane id=":21099015_3_2" index="2" disallow="tram rail_urban rail rail_electric pedestrian ship" speed="13.89" length="15.22" shape="897.56,328.72 911.66,334.27"/>
    </edge>
    <edge id=":21099015_6" function="internal">
        <lane id=":21099015_6_0" index="0" disallow="tram rail_urban rail rail_electric pedestrian ship" speed="13.89" length="13.52" shape="899.34,333.03 901.08,329.21 903.04,326.68 904.88,324.45 906.27,321.53"/>
    </edge>
    <edge id=":21099015_7" function="internal">
        <lane id=":21099015_7_0" index="0" disallow="tram rail_urban rail rail_electric pedestrian ship" speed="13.89" length="4.50" shape="902.49,334.02 903.88,331.51 905.28,330.68"/>
    </edge>
    <edge id=":21099015_8" function="internal">
        <lane id=":21099015_8_0" index="0" disallow="tram rail_urban rail rail_electric pedestrian ship" speed="13.89" length="2.75" shape="902.49,334.02 903.43,332.88 904.68,332.65"/>
    </edge>
    <edge id=":21099015_9" function="internal">
        <lane id=":21099015_9_0" index="0" speed="13.89" length="7.91" shape="905.28,330.68 906.08,330.20 909.08,330.10 912.90,331.21"/>
    </edge>
    <edge id=":21099015_10" function="internal">
        <lane id=":21099015_10_0" index="0" speed="13.89" length="7.24" shape="904.68,332.65 905.27,332.55 908.01,333.01 911.66,334.27"/>
    </edge>
    <edge id=":21099081_0" function="internal">
        <lane id=":21099081_0_0" index="0" disallow="tram rail_urban rail rail_electric pedestrian ship" speed="13.89" length="8.19" shape="674.61,244.47 676.87,245.18 678.53,245.28 680.21,244.95 682.58,244.39"/>
    </edge>
    <edge id=":21099081_1" function="internal">
        <lane id=":21099081_1_0" index="0" disallow="tram rail_urban rail rail_electric pedestrian ship" speed="13.89" length="8.05" shape="674.61,244.47 676.85,245.47 678.31,246.32 679.74,247.24 681.91,248.40"/>
        <lane id=":21099081_1_1" index="1" disallow="tram rail_urban rail rail_electric pedestrian ship" speed="13.89" length="8.05" shape="673.41,247.55 675.59,248.51 676.99,249.35 678.38,250.24 680.48,251.37"/>
        <lane id=":21099081_1_2" index="2" disallow="tram rail_urban rail rail_electric pedestrian ship" speed="13.89" length="8.05" shape="672.22,250.62 674.32,251.56 675.68,252.38 677.01,253.25 679.05,254.35"/>
    </edge>
    <edge id=":2128389393_0" function="internal">
        <lane id=":2128389393_0_0" index="0" disallow="tram rail_urban rail rail_electric pedestrian ship" speed="13.89" length="8.30" shape="937.67,230.67 939.28,228.57 940.62,227.34 942.22,226.38 944.55,225.09"/>
        <lane id=":2128389393_0_1" index="1" disallow="tram rail_urban rail rail_electric pedestrian ship" speed="13.89" length="8.30" shape="939.93,233.19 941.40,231.25 942.61,230.08 944.05,229.16 946.20,227.95"/>
        <lane id=":2128389393_0_2" index="2" disallow="tram rail_urban rail rail_electric pedestrian ship" speed="13.89" length="8.30" shape="942.19,235.72 943.52,233.92 944.60,232.82 945.89,231.94 947.85,230.81"/>
    </edge>
    <edge id=":2147304268_0" function="internal">
        <lane id=":2147304268_0_0" index="0" allow="delivery bicycle pedestrian" speed="5.56" length="5.09" shape="809.29,189.77 808.07,194.70"/>
    </edge>
    <edge id=":2147304268_1" function="internal">
        <lane id=":2147304268_1_0" index="0" allow="delivery bicycle pedestrian" speed="5.56" length="5.09" shape="804.87,193.91 806.09,188.97"/>
    </edge>
    <edge id=":2255274668_0" function="internal">
        <lane id=":2255274668_0_0" index="0" disallow="tram rail_urban rail rail_electric ship" speed="4.17" length="5.10" shape="755.29,128.48 753.91,128.19 752.80,128.44 751.96,129.21 751.40,130.51"/>
    </edge>
    <edge id=":2255274668_1" function="internal">
        <lane id=":2255274668_1_0" index="0" disallow="tram rail_urban rail rail_electric ship" speed="4.17" length="10.44" shape="755.29,128.48 752.69,127.13 751.09,125.33 750.50,123.06 750.91,120.34"/>
    </edge>
    <edge id=":2255274668_2" function="internal">
        <lane id=":2255274668_2_0" index="0" allow="delivery bicycle pedestrian" speed="4.17" length="5.29" shape="754.06,121.31 753.87,122.65 754.20,123.77 755.05,124.68 756.41,125.37"/>
    </edge>
    <edge id=":2255274668_3" function="internal">
        <lane id=":2255274668_3_0" index="0" disallow="tram rail_urban rail rail_electric ship" speed="2.78" length="9.57" shape="754.06,121.31 751.40,130.51"/>
    </edge>
    <edge id=":2255274668_4" function="internal">
        <lane id=":2255274668_4_0" index="0" disallow="tram rail_urban rail rail_electric ship" speed="2.78" length="9.69" shape="748.22,129.64 750.91,120.34"/>
    </edge>
    <edge id=":2255274668_5" function="internal">
        <lane id=":2255274668_5_0" index="0" allow="delivery bicycle pedestrian" speed="4.17" length="5.37" shape="748.22,129.64 749.40,126.91 751.16,125.29"/>
    </edge>
    <edge id=":2255274668_6" function="internal">
        <lane id=":2255274668_6_0" index="0" speed="4.17" length="5.37" shape="751.16,125.29 753.49,124.78 756.41,125.37"/>
    </edge>
    <edge id=":2282501673_0" function="internal">
        <lane id=":2282501673_0_0" index="0" allow="delivery bicycle pedestrian" speed="8.34" length="4.32" shape="1143.32,323.19 1142.04,322.72 1140.99,322.67 1140.16,323.05 1139.56,323.84"/>
    </edge>
    <edge id=":2282501673_1" function="internal">
        <lane id=":2282501673_1_0" index="0" disallow="tram rail_urban rail rail_electric pedestrian ship" speed="11.11" length="9.48" shape="1143.32,323.19 1134.82,318.99"/>
    </edge>
    <edge id=":2282501673_2" function="internal">
        <lane id=":2282501673_2_0" index="0" disallow="tram rail_urban rail rail_electric pedestrian ship" speed="11.11" length="9.45" shape="1136.30,316.04 1144.77,320.22"/>
    </edge>
    <edge id=":2282501673_3" function="internal">
        <lane id=":2282501673_3_0" index="0" allow="delivery bicycle pedestrian" speed="8.34" length="5.40" shape="1136.30,316.04 1138.63,317.59 1139.95,319.41 1140.00,319.76"/>
    </edge>
    <edge id=":2282501673_6" function="internal">
        <lane id=":2282501673_6_0" index="0" speed="8.34" length="4.20" shape="1140.00,319.76 1140.26,321.49 1139.56,323.84"/>
    </edge>
    <edge id=":2282501673_4" function="internal">
        <lane id=":2282501673_4_0" index="0" disallow="tram rail_urban rail rail_electric pedestrian ship" speed="8.34" length="4.34" shape="1136.59,322.40 1136.85,321.42 1136.64,320.53 1135.96,319.72 1134.82,318.99"/>
    </edge>
    <edge id=":2282501673_5" function="internal">
        <lane id=":2282501673_5_0" index="0" disallow="tram rail_urban rail rail_electric pedestrian ship" speed="8.34" length="9.64" shape="1136.59,322.40 1138.01,320.39 1139.84,319.36 1142.10,319.31 1144.77,320.22"/>
    </edge>
    <edge id=":2282501674_0" function="internal">
        <lane id=":2282501674_0_0" index="0" allow="delivery bicycle pedestrian" speed="5.56" length="4.22" shape="1139.47,324.02 1137.58,327.80"/>
    </edge>
    <edge id=":2282501674_1" function="internal">
        <lane id=":2282501674_1_0" index="0" allow="delivery bicycle pedestrian" speed="5.56" length="4.16" shape="1134.64,326.30 1136.50,322.58"/>
    </edge>
    <edge id=":2282665153_0" function="internal">
        <lane id=":2282665153_0_0" index="0" disallow="tram rail_urban rail rail_electric pedestrian ship" speed="13.89" length="4.30" shape="950.61,231.22 950.55,232.49 950.42,233.35 950.18,234.20 949.79,235.41"/>
    </edge>
    <edge id=":2417261666_0" function="internal">
        <lane id=":2417261666_0_0" index="0" allow="delivery bicycle pedestrian" speed="5.56" length="5.00" shape="848.89,141.73 847.38,146.50"/>
    </edge>
    <edge id=":2417261666_1" function="internal">
        <lane id=":2417261666_1_0" index="0" allow="delivery bicycle pedestrian" speed="5.56" length="4.98" shape="844.23,145.49 845.74,140.74"/>
    </edge>
    <edge id=":254365393_0" function="internal">
        <lane id=":254365393_0_0" index="0" disallow="tram rail_urban rail rail_electric pedestrian ship" speed="13.89" length="2.48" shape="924.52,268.86 923.78,271.22"/>
    </edge>
    <edge id=":254365393_1" function="internal">
        <lane id=":254365393_1_0" index="0" disallow="tram rail_urban rail rail_electric pedestrian ship" speed="13.89" length="3.84" shape="917.42,269.47 915.18,265.58"/>
        <lane id=":254365393_1_1" index="1" disallow="tram rail_urban rail rail_electric pedestrian ship" speed="13.89" length="3.84" shape="920.60,270.35 918.29,266.67"/>
        <lane id=":254365393_1_2" index="2" disallow="tram rail_urban rail rail_electric pedestrian ship" speed="13.89" length="3.84" shape="920.60,270.35 921.41,267.76"/>
    </edge>
    <edge id=":260708757_0" function="internal">
        <lane id=":260708757_0_0" index="0" disallow="tram rail_urban rail rail_electric pedestrian ship" speed="13.89" length="4.41" shape="707.47,256.57 707.05,257.95 707.03,259.05 707.42,259.88 708.20,260.43"/>
    </edge>
    <edge id=":260708757_1" function="internal">
        <lane id=":260708757_1_0" index="0" allow="bicycle" speed="13.90" length="12.99" width="1.00" shape="707.47,256.57 702.66,268.64"/>
    </edge>
    <edge id=":260708757_2" function="internal">
        <lane id=":260708757_2_0" index="0" disallow="tram rail_urban rail rail_electric pedestrian ship" speed="13.89" length="5.32" shape="705.43,255.74 704.59,258.50 704.57,260.71 704.66,260.92"/>
    </edge>
    <edge id=":260708757_3" function="internal">
        <lane id=":260708757_3_0" index="0" disallow="tram rail_urban rail rail_electric bicycle ship" speed="13.90" length="13.03" shape="705.43,255.74 700.61,267.85"/>
    </edge>
    <edge id=":260708757_13" function="internal">
        <lane id=":260708757_13_0" index="0" speed="13.89" length="3.54" shape="704.66,260.92 705.35,262.37 706.94,263.47"/>
    </edge>
    <edge id=":260708757_4" function="internal">
        <lane id=":260708757_4_0" index="0" disallow="tram rail_urban rail rail_electric pedestrian ship" speed="13.89" length="11.90" shape="697.29,255.70 708.20,260.43"/>
    </edge>
    <edge id=":260708757_5" function="internal">
        <lane id=":260708757_5_0" index="0" allow="bicycle" speed="13.89" length="15.80" width="1.00" shape="697.29,255.70 700.94,258.00 703.05,260.93 703.63,264.47 702.66,268.64"/>
    </edge>
    <edge id=":260708757_6" function="internal">
        <lane id=":260708757_6_0" index="0" disallow="tram rail_urban rail rail_electric pedestrian ship" speed="13.89" length="12.04" shape="695.93,258.71 706.94,263.47"/>
        <lane id=":260708757_6_1" index="1" disallow="tram rail_urban rail rail_electric pedestrian ship" speed="13.89" length="12.04" shape="694.58,261.72 705.67,266.52"/>
    </edge>
    <edge id=":260708757_8" function="internal">
        <lane id=":260708757_8_0" index="0" disallow="tram rail_urban rail rail_electric bicycle ship" speed="13.89" length="9.28" shape="694.58,261.72 697.64,263.31 699.66,264.86 700.66,266.37 700.61,267.85"/>
    </edge>
    <edge id=":260708757_9" function="internal">
        <lane id=":260708757_9_0" index="0" allow="bicycle" speed="13.90" length="13.13" width="1.00" shape="695.48,265.86 700.34,253.66"/>
    </edge>
    <edge id=":260708757_10" function="internal">
        <lane id=":260708757_10_0" index="0" disallow="tram rail_urban rail rail_electric pedestrian ship" speed="13.89" length="9.78" shape="695.48,265.86 697.09,263.40 699.54,262.19 702.82,262.21 703.62,262.46"/>
    </edge>
    <edge id=":260708757_11" function="internal">
        <lane id=":260708757_11_0" index="0" disallow="tram rail_urban rail rail_electric bicycle ship" speed="13.90" length="13.09" shape="697.53,266.65 702.38,254.49"/>
    </edge>
    <edge id=":260708757_12" function="internal">
        <lane id=":260708757_12_0" index="0" disallow="tram rail_urban rail rail_electric pedestrian ship" speed="13.89" length="8.92" shape="697.53,266.65 698.48,265.51 700.15,265.11 702.55,265.44 705.67,266.52"/>
    </edge>
    <edge id=":260708757_14" function="internal">
        <lane id=":260708757_14_0" index="0" speed="13.89" length="3.47" shape="703.62,262.46 706.94,263.47"/>
    </edge>
    <edge id=":26240344_0" function="internal">
        <lane id=":26240344_0_0" index="0" disallow="tram rail_urban rail rail_electric pedestrian ship" speed="13.89" length="3.75" shape="914.65,304.35 917.01,308.17"/>
        <lane id=":26240344_0_1" index="1" disallow="tram rail_urban rail rail_electric pedestrian ship" speed="13.89" length="3.75" shape="914.65,304.35 913.84,307.25"/>
    </edge>
    <edge id=":26240344_2" function="internal">
        <lane id=":26240344_2_0" index="0" disallow="tram rail_urban rail rail_electric pedestrian ship" speed="13.89" length="3.70" shape="910.67,306.33 908.29,302.60"/>
        <lane id=":26240344_2_1" index="1" disallow="tram rail_urban rail rail_electric pedestrian ship" speed="13.89" length="3.70" shape="910.67,306.33 911.47,303.47"/>
    </edge>
    <edge id=":26240350_0" function="internal">
        <lane id=":26240350_0_0" index="0" allow="tram" speed="13.89" length="12.96" shape="961.78,223.59,-0.16 950.18,217.79,-0.16"/>
    </edge>
    <edge id=":26240350_1" function="internal">
        <lane id=":26240350_1_0" index="0" disallow="tram rail_urban rail rail_electric ship" speed="4.17" length="2.32" shape="958.94,222.91,-0.16 958.50,223.36,-0.11 958.22,223.68,-0.08 957.96,224.02,-0.05 957.59,224.52"/>
        <lane id=":26240350_1_1" index="1" disallow="tram rail_urban rail rail_electric ship" speed="4.17" length="2.32" shape="956.60,220.59,-0.16 956.07,221.12,-0.11 955.73,221.50,-0.08 955.42,221.91,-0.05 954.97,222.51"/>
    </edge>
    <edge id=":26240350_3" function="internal">
        <lane id=":26240350_3_0" index="0" disallow="tram rail_urban rail rail_electric ship" speed="4.17" length="2.99" shape="952.32,220.54,-0.16 952.85,219.83,-0.16 953.23,219.35,-0.16 953.63,218.89,-0.16 954.26,218.26,-0.16"/>
    </edge>
    <edge id=":267314375_0" function="internal">
        <lane id=":267314375_0_0" index="0" allow="delivery bicycle pedestrian" speed="5.56" length="4.56" shape="841.40,175.99 839.85,175.77 838.67,175.87 837.85,176.29 837.39,177.05"/>
    </edge>
    <edge id=":267314375_1" function="internal">