<?xml version="1.0" encoding="UTF-8"?>

<!-- generated on Tue Nov  7 17:10:05 2017 by SUMO duarouter Version svn
<?xml version="1.0" encoding="UTF-8"?>

<configuration xmlns:xsi="http://www.w3.org/2001/XMLSchema-instance" xsi:noNamespaceSchemaLocation="http://sumo.dlr.de/xsd/duarouterConfiguration.xsd">

    <input>
        <net-file value="tests/queens-quay/qq.net.xml"/>
        <route-files value="tests/queens-quay/qq.pedestrian.trips.xml"/>
    </input>

    <output>
        <output-file value="tests/queens-quay/qq.pedestrian.rou.xml"/>
        <alternatives-output value="tests/queens-quay/qq.pedestrian.rou.alt.xml"/>
    </output>

    <processing>
        <ignore-errors value="true"/>
    </processing>

    <time>
        <begin value="0"/>
        <end value="3600"/>
    </time>

    <report>
        <no-warnings value="true"/>
        <no-step-log value="true"/>
    </report>

</configuration>
-->

<routes xmlns:xsi="http://www.w3.org/2001/XMLSchema-instance" xsi:noNamespaceSchemaLocation="http://sumo.dlr.de/xsd/routes_file.xsd">
    <person id="ped15" depart="30.00">
        <walk edges="41789169#3 -41789169#2 -41789169#1 179160985#2 39162536#4 39162536#3 39162536#2 39162536#1 39162536#0 179154095#3 179154095#4 179154095#5 179154095#6 179154095#7 179154095#8 302298890#0 340533303#2 -340533303#1"/>
    </person>
    <person id="ped23" depart="46.00">
        <walk edges="342652996#1 -24589807#0 -24589807#1 179154095#9 179154095#8 179154095#7 179154095#6 179154095#5 179154095#4 179154095#3 39162536#0 39162536#1 39162536#2 39162536#3 39162536#4 179160985#2 -41789169#1 -41789169#2"/>
    </person>
    <person id="ped27" depart="54.00">
        <walk edges="302982383#2 302982373#0 302982373#1 -24589812#5 179154095#4 179154095#5 179154095#6 179154095#7 179154095#8 179154095#9 -24589807#1 -24589807#0 342652996#1"/>
    </person>
    <person id="ped39" depart="78.00">
        <walk edges="-302982383#0 302982375#0 302982375#1 302982375#2 302982375#3 -24589812#3 -24589812#4 -24589812#5 179154095#4 179154095#5 179154095#6 179154095#7 179154095#8 302298890#0 340533303#2 -340533303#1 -340533303#0"/>
    </person>
    <person id="ped46" depart="92.00">
        <walk edges="302982383#0 302982375#0 302982375#1 302982375#2 302982375#3 -24589812#3 -24589812#4 -24589812#5 179154095#4 179154095#5 179154095#6 179154095#7 179154095#8 179154095#9 -24589807#1 -24589807#0 342652996#0"/>
    </person>
    <person id="ped73" depart="146.00">
        <walk edges="24159283#3 -24159283#2 -24159283#1 179154095#2 179154095#3 179154095#4 179154095#5 179154095#6 179154095#7 179154095#8 302298890#0 340533303#2 -538879504"/>
    </person>
    <person id="ped87" depart="174.00">
        <walk edges="41789169#1 179160985#2 39162536#4 39162536#3 39162536#2 39162536#1 39162536#0 179154095#3 179154095#4 179154095#5 179154095#6 179154095#7 179154095#8 302298890#0 340533303#2 -538879504"/>
    </person>
    <person id="ped94" depart="188.00">
        <walk edges="342652996#1 -24589807#0 -24589807#1 179154095#9 179154095#8 179154095#7 179154095#6 179154095#5 179154095#4 179154095#3 39162536#0 39162536#1 39162536#2 39162536#3 39162536#4 179160985#2 -41789169#1 -41789169#2 41789169#3 -41789169#4 61511563#1 496239605#3 496239605#2 334951838"/>
    </person>
    <person id="ped157" depart="314.00">
        <walk edges="340533303#2 302298890#0 179154095#8 179154095#7 179154095#6 179154095#5 179154095#4 179154095#3 39162536#0 39162536#1 39162536#2 39162536#3 39162536#4 179160985#2 -41789169#1 -41789169#2"/>
    </person>
    <person id="ped181" depart="362.00">
        <walk edges="-302982383#2 302982373#0 302982373#1 -24589812#5 179154095#4 179154095#5 179154095#6 179154095#7 179154095#8 302298890#0 340533303#2 -340533303#1 -340533303#0"/>
    </person>
    <person id="ped188" depart="376.00">
        <walk edges="-302982383#0 302982375#0 302982375#1 302982375#2 302982375#3 -24589812#3 -24589812#4 -24589812#5 179154095#4 179154095#5 179154095#6 179154095#7 179154095#8 302298890#0 340533303#2 -538879504"/>
    </person>
    <person id="ped190" depart="380.00">
        <walk edges="342652996#1 -24589807#0 -24589807#1 179154095#9 179154095#8 179154095#7 179154095#6 179154095#5 179154095#4 179154095#3 39162536#0 39162536#1 39162536#2 39162536#3 39162536#4 179160985#2 -41789169#1 41789169#2"/>
    </person>
    <person id="ped222" depart="444.00">
        <walk edges="342652996#1 -24589807#0 -24589807#1 179154095#9 179154095#8 179154095#7 179154095#6 179154095#5 179154095#4 -24589812#5 -24589812#4 -24589812#3 302982375#3 302982375#2 302982375#1 302982375#0 -302982383#0"/>
    </person>
    <person id="ped230" depart="460.00">
        <walk edges="302982383#2 302982373#0 302982373#1 -24589812#5 179154095#4 179154095#5 179154095#6 179154095#7 179154095#8 302298890#0 340533303#2 -538879504"/>
    </person>
    <person id="ped245" depart="490.00">
        <walk edges="24159283#3 -24159283#2 -24159283#1 179154095#2 179154095#3 179154095#4 179154095#5 179154095#6 179154095#7 179154095#8 302298890#0 340533303#2 -538879504"/>
    </person>
    <person id="ped278" depart="556.00">
        <walk edges="340533303#2 302298890#0 179154095#8 179154095#7 179154095#6 179154095#5 179154095#4 179154095#3 39162536#0 39162536#1 39162536#2 39162536#3 39162536#4 179160985#2 -41789169#1"/>
    </person>
    <person id="ped307" depart="614.00">
        <walk edges="302298890#0 179154095#8 179154095#7 179154095#6 179154095#5 179154095#4 179154095#3 39162536#0 39162536#1 39162536#2 39162536#3 39162536#4 179160985#2 -41789169#1 -41789169#2 41789169#3 -41789169#4 61511563#1 496239605#3 496239605#2 334951835"/>
    </person>
    <person id="ped321" depart="642.00">
        <walk edges="-24159283#3 -24159283#2 -24159283#1 179154095#2 179154095#3 179154095#4 179154095#5 179154095#6 179154095#7 179154095#8 179154095#9 -24589807#1 -24589807#0 342652996#0"/>
    </person>
    <person id="ped353" depart="706.00">
        <walk edges="24159283#3 -24159283#2 -24159283#1 179154095#2 179154095#3 179154095#4 179154095#5 179154095#6 179154095#7 179154095#8 302298890#0 340533303#2 -340533303#1 -340533303#0"/>
    </person>
    <person id="ped388" depart="776.00">
        <walk edges="-302982383#0 302982375#0 302982375#1 302982375#2 302982375#3 -24589812#3 -24589812#4 -24589812#5 179154095#4 179154095#5 179154095#6 179154095#7 179154095#8 302298890#0 340533303#2 -538879504"/>
    </person>
    <person id="ped398" depart="796.00">
        <walk edges="342652996#1 -24589807#0 -24589807#1 179154095#9 179154095#8 179154095#7 179154095#6 179154095#5 179154095#4 -24589812#5 -24589812#4 -24589812#3 302982375#3 302982375#2 302982375#1 302982375#0 -302982383#0 24159283#3"/>
    </person>
    <person id="ped403" depart="806.00">
        <walk edges="340533303#2 302298890#0 179154095#8 179154095#7 179154095#6 179154095#5 179154095#4 -24589812#5 302982373#1 302982373#0 302982383#1"/>
    </person>
    <person id="ped408" depart="816.00">
        <walk edges="302982383#2 302982373#0 302982373#1 -24589812#5 179154095#4 179154095#5 179154095#6 179154095#7 179154095#8 302298890#0 340533303#2 -538879504"/>
    </person>
    <person id="ped424" depart="848.00">
        <walk edges="340533303#2 302298890#0 179154095#8 179154095#7 179154095#6 179154095#5 179154095#4 179154095#3 39162536#0 39162536#1 39162536#2 39162536#3 39162536#4 179160985#2 -41789169#1 -41789169#2 -41789169#3"/>
    </person>
    <person id="ped426" depart="852.00">
        <walk edges="24159283#3 -24159283#2 -24159283#1 179154095#2 179154095#3 179154095#4 179154095#5 179154095#6 179154095#7 179154095#8 302298890#0 340533303#2 -538879504"/>
    </person>
    <person id="ped477" depart="954.00">
        <walk edges="302982383#0 302982375#0 302982375#1 302982375#2 302982375#3 -24589812#3 -24589812#4 -24589812#5 179154095#4 179154095#5 179154095#6 179154095#7 179154095#8 179154095#9 -24589807#1 -24589807#0 342652996#0"/>
    </person>
    <person id="ped492" depart="984.00">
        <walk edges="340533303#0 -340533303#1 340533303#2 302298890#0 179154095#8 179154095#7 179154095#6 179154095#5 179154095#4 -24589812#5 -24589812#4 -24589812#3 302982375#3 302982375#2 302982375#1 302982375#0 -302982383#0"/>
    </person>
    <person id="ped496" depart="992.00">
        <walk edges="334951835 -41789169#5 -41789169#4 41789169#3 -41789169#2 -41789169#1 179160985#2 39162536#4 39162536#3 39162536#2 39162536#1 39162536#0 179154095#3 179154095#4 179154095#5 179154095#6 179154095#7 179154095#8 179154095#9 -24589807#1 -24589807#0 342652996#0"/>
    </person>
    <person id="ped508" depart="1016.00">
        <walk edges="-302982383#0 302982375#0 302982375#1 302982375#2 302982375#3 -24589812#3 -24589812#4 -24589812#5 179154095#4 179154095#5 179154095#6 179154095#7 179154095#8 179154095#9 -24589807#1 -24589807#0 342652996#1"/>
    </person>
    <person id="ped510" depart="1020.00">
        <walk edges="-302982383#0 302982375#0 302982375#1 302982375#2 302982375#3 -24589812#3 -24589812#4 -24589812#5 179154095#4 179154095#5 179154095#6 179154095#7 179154095#8 302298890#0 340533303#2 -538879504"/>
    </person>
    <person id="ped511" depart="1022.00">
        <walk edges="334951835 -41789169#5 -41789169#4 41789169#3 -41789169#2 -41789169#1 179160985#2 39162536#4 39162536#3 39162536#2 39162536#1 39162536#0 179154095#3 179154095#4 179154095#5 179154095#6 179154095#7 179154095#8 179154095#9 -24589807#1 -24589807#0 342652996#1"/>
    </person>
    <person id="ped538" depart="1076.00">
        <walk edges="-302982383#2 302982373#0 302982373#1 -24589812#5 179154095#4 179154095#5 179154095#6 179154095#7 179154095#8 179154095#9 -24589807#1 -24589807#0 342652996#1"/>
    </person>
    <person id="ped557" depart="1114.00">
        <walk edges="-41789169#2 -41789169#1 179160985#2 39162536#4 39162536#3 39162536#2 39162536#1 39162536#0 179154095#3 179154095#4 179154095#5 179154095#6 179154095#7 179154095#8 179154095#9 -24589807#1 -24589807#0 342652996#1"/>
    </person>
    <person id="ped559" depart="1118.00">
        <walk edges="340533303#2 302298890#0 179154095#8 179154095#7 179154095#6 179154095#5 179154095#4 -24589812#5 -24589812#4 -24589812#3 302982375#3 302982375#2 302982375#1 302982375#0 -302982383#0 24159283#3"/>
    </person>
    <person id="ped570" depart="1140.00">
        <walk edges="24159283#3 -24159283#2 -24159283#1 179154095#2 179154095#3 179154095#4 179154095#5 179154095#6 179154095#7 179154095#8 179154095#9 -24589807#1 -24589807#0 342652996#0"/>
    </person>
    <person id="ped574" depart="1148.00">
        <walk edges="-24159283#4 -302982383#0 302982375#0 302982375#1 302982375#2 302982375#3 -24589812#3 -24589812#4 -24589812#5 179154095#4 179154095#5 179154095#6 179154095#7 179154095#8 179154095#9 -24589807#1 -24589807#0 342652996#0"/>
    </person>
    <person id="ped587" depart="1174.00">
        <walk edges="302982383#0 302982375#0 302982375#1 302982375#2 302982375#3 -24589812#3 -24589812#4 -24589812#5 179154095#4 179154095#5 179154095#6 179154095#7 179154095#8 302298890#0 340533303#2 -538879504"/>
    </person>
    <person id="ped632" depart="1264.00">
        <walk edges="302298890#0 179154095#8 179154095#7 179154095#6 179154095#5 179154095#4 179154095#3 39162536#0 39162536#1 39162536#2 39162536#3 39162536#4 179160985#2 -41789169#1 -41789169#2 41789169#3 -41789169#4 61511563#1 496239605#3 496239605#2 334951838"/>
    </person>
    <person id="ped635" depart="1270.00">
        <walk edges="-302982383#0 302982375#0 302982375#1 302982375#2 302982375#3 -24589812#3 -24589812#4 -24589812#5 179154095#4 179154095#5 179154095#6 179154095#7 179154095#8 179154095#9 -24589807#1 -24589807#0 342652996#1"/>
    </person>
    <person id="ped681" depart="1362.00">
        <walk edges="340533303#2 302298890#0 179154095#8 179154095#7 179154095#6 179154095#5 179154095#4 179154095#3 39162536#0 39162536#1 39162536#2 39162536#3 39162536#4 179160985#2 -41789169#1 -41789169#2 41789169#3 -41789169#4 61511563#1 496239605#3 496239605#2 334951838"/>
    </person>
    <person id="ped692" depart="1384.00">
        <walk edges="340533303#2 302298890#0 179154095#8 179154095#7 179154095#6 179154095#5 179154095#4 179154095#3 39162536#0 39162536#1 39162536#2 39162536#3 39162536#4 179160985#2 -41789169#1 -41789169#2 41789169#3 -41789169#4 -41789169#5 -334951835"/>
    </person>
    <person id="ped693" depart="1386.00">
        <walk edges="340533303#2 302298890#0 179154095#8 179154095#7 179154095#6 179154095#5 179154095#4 -24589812#5 302982373#1 302982373#0 302982383#1"/>
    </person>
    <person id="ped709" depart="1418.00">
        <walk edges="-41789169#1 179160985#2 39162536#4 39162536#3 39162536#2 39162536#1 39162536#0 179154095#3 179154095#4 179154095#5 179154095#6 179154095#7 179154095#8 302298890#0 340533303#2 -538879504"/>
    </person>
    <person id="ped712" depart="1424.00">
        <walk edges="340533303#2 302298890#0 179154095#8 179154095#7 179154095#6 179154095#5 179154095#4 179154095#3 179154095#2 -24159283#1 302982383#2"/>
    </person>
    <person id="ped728" depart="1456.00">
        <walk edges="302298890#0 179154095#8 179154095#7 179154095#6 179154095#5 179154095#4 179154095#3 39162536#0 39162536#1 39162536#2 39162536#3 39162536#4 179160985#2 -41789169#1 -41789169#2 41789169#3 -41789169#4 61511563#1 496239605#3 496239605#2 334951838"/>
    </person>
    <person id="ped749" depart="1498.00">
        <walk edges="340533303#0 -340533303#1 340533303#2 302298890#0 179154095#8 179154095#7 179154095#6 179154095#5 179154095#4 -24589812#5 -24589812#4 -24589812#3 302982375#3 302982375#2 302982375#1 302982375#0 -302982383#1"/>
    </person>
    <person id="ped778" depart="1556.00">
        <walk edges="-538879504 302298890#0 179154095#8 179154095#7 179154095#6 179154095#5 179154095#4 179154095#3 39162536#0 39162536#1 39162536#2 39162536#3 39162536#4 179160985#2 -41789169#1 -41789169#2 41789169#3 -41789169#4 61511563#1 496239605#3 496239605#2 334951838"/>
    </person>
    <person id="ped791" depart="1582.00">
        <walk edges="340533303#0 -340533303#1 340533303#2 302298890#0 179154095#8 179154095#7 179154095#6 179154095#5 179154095#4 -24589812#5 -24589812#4 -24589812#3 302982375#3 302982375#2 302982375#1 302982375#0 -302982383#0"/>
    </person>
    <person id="ped812" depart="1624.00">
        <walk edges="-41789169#1 179160985#2 39162536#4 39162536#3 39162536#2 39162536#1 39162536#0 179154095#3 179154095#4 179154095#5 179154095#6 179154095#7 179154095#8 179154095#9 -24589807#1 -24589807#0 342652996#1"/>
    </person>
    <person id="ped832" depart="1664.00">
        <walk edges="-24159283#3 -24159283#2 -24159283#1 179154095#2 179154095#3 179154095#4 179154095#5 179154095#6 179154095#7 179154095#8 302298890#0 340533303#2 -538879504"/>
    </person>
    <person id="ped840" depart="1680.00">
        <walk edges="41789169#2 -41789169#1 179160985#2 39162536#4 39162536#3 39162536#2 39162536#1 39162536#0 179154095#3 179154095#4 179154095#5 179154095#6 179154095#7 179154095#8 179154095#9 -24589807#1 -24589807#0 342652996#1"/>
    </person>
    <person id="ped860" depart="1720.00">
        <walk edges="342652996#1 -24589807#0 -24589807#1 179154095#9 179154095#8 179154095#7 179154095#6 179154095#5 179154095#4 179154095#3 39162536#0 39162536#1 39162536#2 39162536#3 39162536#4 179160985#2 -41789169#1 -41789169#2 41789169#3 -41789169#4 -41789169#5 -334951835"/>
    </person>
    <person id="ped862" depart="1724.00">
        <walk edges="340533303#0 -340533303#1 340533303#2 302298890#0 179154095#8 179154095#7 179154095#6 179154095#5 179154095#4 179154095#3 179154095#2 -24159283#1 -24159283#2 -24159283#3"/>
    </person>
    <person id="ped867" depart="1734.00">
        <walk edges="-24159283#4 -302982383#0 302982375#0 302982375#1 302982375#2 302982375#3 -24589812#3 -24589812#4 -24589812#5 179154095#4 179154095#5 179154095#6 179154095#7 179154095#8 302298890#0 340533303#2 -340533303#1 -340533303#0"/>
    </person>
    <person id="ped904" depart="1808.00">
        <walk edges="340533303#2 302298890#0 179154095#8 179154095#7 179154095#6 179154095#5 179154095#4 179154095#3 39162536#0 39162536#1 39162536#2 39162536#3 39162536#4 179160985#2 -41789169#1 -41789169#2"/>
    </person>
    <person id="ped906" depart="1812.00">
        <walk edges="340533303#0 -340533303#1 340533303#2 302298890#0 179154095#8 179154095#7 179154095#6 179154095#5 179154095#4 -24589812#5 -24589812#4 -24589812#3 302982375#3 302982375#2 302982375#1 302982375#0 302982383#0"/>
    </person>
    <person id="ped908" depart="1816.00">
        <walk edges="-41789169#2 -41789169#1 179160985#2 39162536#4 39162536#3 39162536#2 39162536#1 39162536#0 179154095#3 179154095#4 179154095#5 179154095#6 179154095#7 179154095#8 302298890#0 340533303#2 -538879504"/>
    </person>
    <person id="ped920" depart="1840.00">
        <walk edges="-24159283#4 -302982383#0 302982375#0 302982375#1 302982375#2 302982375#3 -24589812#3 -24589812#4 -24589812#5 179154095#4 179154095#5 179154095#6 179154095#7 179154095#8 302298890#0 340533303#2 -340533303#1 -340533303#0"/>
    </person>
    <person id="ped931" depart="1862.00">
        <walk edges="-302982383#0 302982375#0 302982375#1 302982375#2 302982375#3 -24589812#3 -24589812#4 -24589812#5 179154095#4 179154095#5 179154095#6 179154095#7 179154095#8 302298890#0 340533303#2 -538879504"/>
    </person>
    <person id="ped962" depart="1924.00">
        <walk edges="342652996#1 -24589807#0 -24589807#1 179154095#9 179154095#8 179154095#7 179154095#6 179154095#5 179154095#4 179154095#3 179154095#2 -24159283#1 302982383#2"/>
    </person>
    <person id="ped975" depart="1950.00">
        <walk edges="342652996#1 -24589807#0 -24589807#1 179154095#9 179154095#8 179154095#7 179154095#6 179154095#5 179154095#4 179154095#3 39162536#0 39162536#1 39162536#2 39162536#3 39162536#4 179160985#2 -41789169#1 -41789169#2"/>
    </person>
    <person id="ped992" depart="1984.00">
        <walk edges="302982383#1 302982375#0 302982375#1 302982375#2 302982375#3 -24589812#3 -24589812#4 -24589812#5 179154095#4 179154095#5 179154095#6 179154095#7 179154095#8 302298890#0 340533303#2 -538879504"/>
    </person>
    <person id="ped1012" depart="2024.00">
        <walk edges="340533303#1 340533303#2 302298890#0 179154095#8 179154095#7 179154095#6 179154095#5 179154095#4 179154095#3 179154095#2 -24159283#1 302982383#2"/>
    </person>
    <person id="ped1028" depart="2056.00">
        <walk edges="24159283#3 -24159283#2 -24159283#1 179154095#2 179154095#3 179154095#4 179154095#5 179154095#6 179154095#7 179154095#8 302298890#0 340533303#2 -538879504"/>
    </person>
    <person id="ped1032" depart="2064.00">
        <walk edges="-302982383#2 302982373#0 302982373#1 -24589812#5 179154095#4 179154095#5 179154095#6 179154095#7 179154095#8 179154095#9 -24589807#1 -24589807#0 342652996#1"/>
    </person>
    <person id="ped1038" depart="2076.00">
        <walk edges="342652996#1 -24589807#0 -24589807#1 179154095#9 179154095#8 179154095#7 179154095#6 179154095#5 179154095#4 179154095#3 39162536#0 39162536#1 39162536#2 39162536#3 39162536#4 179160985#2 -41789169#1 -41789169#2 41789169#3 -41789169#4 61511563#1 496239605#3 496239605#2 334951838"/>
    </person>
    <person id="ped1084" depart="2168.00">
        <walk edges="340533303#2 302298890#0 179154095#8 179154095#7 179154095#6 179154095#5 179154095#4 179154095#3 39162536#0 39162536#1 39162536#2 39162536#3 39162536#4 179160985#2 -41789169#1 -41789169#2 41789169#3 -41789169#4 61511563#1 496239605#3 496239605#2 334951835"/>
    </person>
    <person id="ped1119" depart="2238.00">
        <walk edges="340533303#2 302298890#0 179154095#8 179154095#7 179154095#6 179154095#5 179154095#4 -24589812#5 -24589812#4 -24589812#3 302982375#3 302982375#2 302982375#1 302982375#0 -302982383#0"/>
    </person>
    <person id="ped1162" depart="2324.00">
        <walk edges="340533303#2 302298890#0 179154095#8 179154095#7 179154095#6 179154095#5 179154095#4 179154095#3 39162536#0 39162536#1 39162536#2 39162536#3 39162536#4 179160985#2 41789169#1"/>
    </person>
    <person id="ped1185" depart="2370.00">
        <walk edges="-538879504 302298890#0 179154095#8 179154095#7 179154095#6 179154095#5 179154095#4 179154095#3 39162536#0 39162536#1 39162536#2 39162536#3 39162536#4 179160985#2 -41789169#1 -41789169#2 41789169#3 -41789169#4 61511563#1 496239605#3 496239605#2 334951838"/>
    </person>
    <person id="ped1187" depart="2374.00">
        <walk edges="340533303#2 302298890#0 179154095#8 179154095#7 179154095#6 179154095#5 179154095#4 -24589812#5 302982373#1 302982373#0 -302982383#2"/>
    </person>
    <person id="ped1197" depart="2394.00">
        <walk edges="342652996#1 -24589807#0 -24589807#1 179154095#9 179154095#8 179154095#7 179154095#6 179154095#5 179154095#4 179154095#3 39162536#0 39162536#1 39162536#2 39162536#3 39162536#4 179160985#2 -41789169#1 -41789169#2"/>
    </person>
    <person id="ped1200" depart="2400.00">
        <walk edges="-334951835 -41789169#5 -41789169#4 41789169#3 -41789169#2 -41789169#1 179160985#2 39162536#4 39162536#3 39162536#2 39162536#1 39162536#0 179154095#3 179154095#4 179154095#5 179154095#6 179154095#7 179154095#8 302298890#0 340533303#2"/>
    </person>
    <person id="ped1205" depart="2410.00">
        <walk edges="24159283#3 -24159283#2 -24159283#1 179154095#2 179154095#3 179154095#4 179154095#5 179154095#6 179154095#7 179154095#8 179154095#9 -24589807#1 -24589807#0 342652996#1"/>
    </person>
    <person id="ped1231" depart="2462.00">
        <walk edges="342652996#1 -24589807#0 -24589807#1 179154095#9 179154095#8 179154095#7 179154095#6 179154095#5 179154095#4 179154095#3 39162536#0 39162536#1 39162536#2 39162536#3 39162536#4 179160985#2 -41789169#1 -41789169#2 41789169#3 -41789169#4 61511563#1 496239605#3 496239605#2 334951838"/>
    </person>
    <person id="ped1236" depart="2472.00">
        <walk edges="-41789169#2 -41789169#1 179160985#2 39162536#4 39162536#3 39162536#2 39162536#1 39162536#0 179154095#3 179154095#4 179154095#5 179154095#6 179154095#7 179154095#8 179154095#9 -24589807#1 -24589807#0 342652996#1"/>
    </person>
    <person id="ped1239" depart="2478.00">
        <walk edges="24159283#3 -24159283#2 -24159283#1 179154095#2 179154095#3 179154095#4 179154095#5 179154095#6 179154095#7 179154095#8 179154095#9 -24589807#1 -24589807#0 342652996#1"/>
    </person>
    <person id="ped1260" depart="2520.00">
        <walk edges="302982383#0 302982375#0 302982375#1 302982375#2 302982375#3 -24589812#3 -24589812#4 -24589812#5 179154095#4 179154095#5 179154095#6 179154095#7 179154095#8 179154095#9 -24589807#1 -24589807#0 342652996#0"/>
    </person>
    <person id="ped1301" depart="2602.00">
        <walk edges="-302982383#0 302982375#0 302982375#1 302982375#2 302982375#3 -24589812#3 -24589812#4 -24589812#5 179154095#4 179154095#5 179154095#6 179154095#7 179154095#8 179154095#9 -24589807#1 -24589807#0 342652996#1"/>
    </person>
    <person id="ped1303" depart="2606.00">
        <walk edges="340533303#2 302298890#0 179154095#8 179154095#7 179154095#6 179154095#5 179154095#4 -24589812#5 -24589812#4 -24589812#3 302982375#3 302982375#2 302982375#1 302982375#0 -302982383#0 24159283#3"/>
    </person>
    <person id="ped1330" depart="2660.00">
        <walk edges="-334951835 -41789169#5 -41789169#4 41789169#3 -41789169#2 -41789169#1 179160985#2 39162536#4 39162536#3 39162536#2 39162536#1 39162536#0 179154095#3 179154095#4 179154095#5 179154095#6 179154095#7 179154095#8 302298890#0 340533303#2 -538879504"/>
    </person>
    <person id="ped1345" depart="2690.00">
        <walk edges="41789169#1 179160985#2 39162536#4 39162536#3 39162536#2 39162536#1 39162536#0 179154095#3 179154095#4 179154095#5 179154095#6 179154095#7 179154095#8 179154095#9 -24589807#1 -24589807#0 342652996#1"/>
    </person>
    <person id="ped1349" depart="2698.00">
        <walk edges="-302982383#0 302982375#0 302982375#1 302982375#2 302982375#3 -24589812#3 -24589812#4 -24589812#5 179154095#4 179154095#5 179154095#6 179154095#7 179154095#8 179154095#9 -24589807#1 -24589807#0 342652996#1"/>
    </person>
    <person id="ped1357" depart="2714.00">
        <walk edges="340533303#2 302298890#0 179154095#8 179154095#7 179154095#6 179154095#5 179154095#4 -24589812#5 -24589812#4 -24589812#3 302982375#3 302982375#2 302982375#1 302982375#0 -302982383#0"/>
    </person>
    <person id="ped1390" depart="2780.00">
        <walk edges="340533303#2 302298890#0 179154095#8 179154095#7 179154095#6 179154095#5 179154095#4 179154095#3 39162536#0 39162536#1 39162536#2 39162536#3 39162536#4 179160985#2 -41789169#1"/>
    </person>
    <person id="ped1396" depart="2792.00">
        <walk edges="302982383#2 302982373#0 302982373#1 -24589812#5 179154095#4 179154095#5 179154095#6 179154095#7 179154095#8 302298890#0 340533303#2 -538879504"/>
    </person>
    <person id="ped1416" depart="2832.00">
        <walk edges="342652996#1 -24589807#0 -24589807#1 179154095#9 179154095#8 179154095#7 179154095#6 179154095#5 179154095#4 179154095#3 179154095#2 -24159283#1 302982383#2"/>
    </person>
    <person id="ped1421" depart="2842.00">
        <walk edges="-24159283#4 -302982383#0 302982375#0 302982375#1 302982375#2 302982375#3 -24589812#3 -24589812#4 -24589812#5 179154095#4 179154095#5 179154095#6 179154095#7 179154095#8 179154095#9 -24589807#1 -24589807#0 342652996#1"/>
    </person>
    <person id="ped1434" depart="2868.00">
        <walk edges="-302982383#0 302982375#0 302982375#1 302982375#2 302982375#3 -24589812#3 -24589812#4 -24589812#5 179154095#4 179154095#5 179154095#6 179154095#7 179154095#8 302298890#0 340533303#2 -538879504"/>
    </person>
    <person id="ped1444" depart="2888.00">
        <walk edges="-41789169#3 -41789169#2 -41789169#1 179160985#2 39162536#4 39162536#3 39162536#2 39162536#1 39162536#0 179154095#3 179154095#4 179154095#5 179154095#6 179154095#7 179154095#8 302298890#0 340533303#2 -538879504"/>
    </person>
    <person id="ped1447" depart="2894.00">
        <walk edges="342652996#1 -24589807#0 -24589807#1 179154095#9 179154095#8 179154095#7 179154095#6 179154095#5 179154095#4 -24589812#5 -24589812#4 -24589812#3 302982375#3 302982375#2 302982375#1 302982375#0 -302982383#0"/>
    </person>
    <person id="ped1455" depart="2910.00">
        <walk edges="-538879504 302298890#0 179154095#8 179154095#7 179154095#6 179154095#5 179154095#4 179154095#3 39162536#0 39162536#1 39162536#2 39162536#3 39162536#4 179160985#2 -41789169#1 -41789169#2 41789169#3 -41789169#4 61511563#1 496239605#3 496239605#2 334951838"/>
    </person>
    <person id="ped1457" depart="2914.00">
        <walk edges="41789169#2 -41789169#1 179160985#2 39162536#4 39162536#3 39162536#2 39162536#1 39162536#0 179154095#3 179154095#4 179154095#5 179154095#6 179154095#7 179154095#8 179154095#9 -24589807#1 -24589807#0 342652996#0"/>
    </person>
    <person id="ped1470" depart="2940.00">
        <walk edges="-302982383#0 302982375#0 302982375#1 302982375#2 302982375#3 -24589812#3 -24589812#4 -24589812#5 179154095#4 179154095#5 179154095#6 179154095#7 179154095#8 302298890#0 340533303#2 -538879504"/>
    </person>
    <person id="ped1479" depart="2958.00">
        <walk edges="41789169#2 -41789169#1 179160985#2 39162536#4 39162536#3 39162536#2 39162536#1 39162536#0 179154095#3 179154095#4 179154095#5 179154095#6 179154095#7 179154095#8 179154095#9 -24589807#1 -24589807#0 342652996#1"/>
    </person>
    <person id="ped1496" depart="2992.00">
        <walk edges="340533303#2 302298890#0 179154095#8 179154095#7 179154095#6 179154095#5 179154095#4 179154095#3 179154095#2 -24159283#1 -24159283#2 -24159283#3"/>
    </person>
    <person id="ped1508" depart="3016.00">
        <walk edges="41789169#2 -41789169#1 179160985#2 39162536#4 39162536#3 39162536#2 39162536#1 39162536#0 179154095#3 179154095#4 179154095#5 179154095#6 179154095#7 179154095#8 302298890#0 340533303#2 -538879504"/>
    </person>
    <person id="ped1512" depart="3024.00">
        <walk edges="340533303#0 -340533303#1 340533303#2 302298890#0 179154095#8 179154095#7 179154095#6 179154095#5 179154095#4 -24589812#5 -24589812#4 -24589812#3 302982375#3 302982375#2 302982375#1 302982375#0 -302982383#0"/>
    </person>
    <person id="ped1531" depart="3062.00">
        <walk edges="340533303#2 302298890#0 179154095#8 179154095#7 179154095#6 179154095#5 179154095#4 179154095#3 39162536#0 39162536#1 39162536#2 39162536#3 39162536#4 179160985#2 -41789169#1 -41789169#2 41789169#3 -41789169#4 61511563#1 496239605#3 496239605#2 334951838"/>
    </person>
    <person id="ped1542" depart="3084.00">
        <walk edges="302982383#0 302982375#0 302982375#1 302982375#2 302982375#3 -24589812#3 -24589812#4 -24589812#5 179154095#4 179154095#5 179154095#6 179154095#7 179154095#8 302298890#0 340533303#2 -538879504"/>
    </person>
    <person id="ped1569" depart="3138.00">
        <walk edges="340533303#2 302298890#0 179154095#8 179154095#7 179154095#6 179154095#5 179154095#4 -24589812#5 -24589812#4 -24589812#3 302982375#3 302982375#2 302982375#1 302982375#0 -302982383#0"/>
    </person>
    <person id="ped1572" depart="3144.00">
        <walk edges="-302982383#2 302982373#0 302982373#1 -24589812#5 179154095#4 179154095#5 179154095#6 179154095#7 179154095#8 179154095#9 -24589807#1 -24589807#0 342652996#1"/>
    </person>
    <person id="ped1592" depart="3184.00">
        <walk edges="-538879504 302298890#0 179154095#8 179154095#7 179154095#6 179154095#5 179154095#4 179154095#3 39162536#0 39162536#1 39162536#2 39162536#3 39162536#4 179160985#2 -41789169#1 -41789169#2 41789169#3 -41789169#4 61511563#1 496239605#3 496239605#2 334951838"/>
    </person>
    <person id="ped1593" depart="3186.00">
        <walk edges="-302982383#2 302982373#0 302982373#1 -24589812#5 179154095#4 179154095#5 179154095#6 179154095#7 179154095#8 179154095#9 -24589807#1 -24589807#0 342652996#1"/>
    </person>
    <person id="ped1615" depart="3230.00">