<?xml version="1.0"?>
<!-- generated on 2017-10-31 11:34:58.188762 by $Id$
  options: config/toronto.net.xml
-->
<routes xmlns:xsi="http://www.w3.org/2001/XMLSchema-instance" xsi:noNamespaceSchemaLocation="http://sumo.dlr.de/xsd/routes_file.xsd">
    <vType id="bicycle" vClass="bicycle" speedFactor="normc(1.00,0.10,0.20,2.00)"/>
    <trip id="bike0" depart="0.00" from="29185834" to="24221154#2" type="bicycle"/>
    <trip id="bike1" depart="2.00" from="-4005312#4" to="219860808" type="bicycle"/>
    <trip id="bike2" depart="4.00" from="-41789166#1" to="4006129#0" type="bicycle"/>
    <trip id="bike3" depart="6.00" from="219845317#0" to="363812629#1" type="bicycle"/>
    <trip id="bike4" depart="8.00" from="403367818#1" to="98243535" type="bicycle"/>
    <trip id="bike5" depart="10.00" from="448090102#0" to="14746490#9" type="bicycle"/>
    <trip id="bike6" depart="12.00" from="32971625" to="41789165#1" type="bicycle"/>
    <trip id="bike7" depart="14.00" from="22689358" to="-494886775" type="bicycle"/>
    <trip id="bike8" depart="16.00" from="-14746490#9" to="23209226#1" type="bicycle"/>
    <trip id="bike9" depart="18.00" from="253255498#1" to="98243454" type="bicycle"/>
    <trip id="bike10" depart="20.00" from="-394123967#0" to="4006129#5" type="bicycle"/>
    <trip id="bike11" depart="22.00" from="76536405" to="-154645357#1" type="bicycle"/>
    <trip id="bike12" depart="24.00" from="461110435#0" to="203963763#1" type="bicycle"/>
    <trip id="bike13" depart="26.00" from="-248061547" to="98243453#0" type="bicycle"/>
    <trip id="bike14" depart="28.00" from="218787180#1" to="23209195" type="bicycle"/>
    <trip id="bike15" depart="30.00" from="133669149#7" to="503003069#0" type="bicycle"/>
    <trip id="bike16" depart="32.00" from="189607534" to="-189146659#0" type="bicycle"/>
    <trip id="bike17" depart="34.00" from="-34857878#1" to="19882354" type="bicycle"/>
    <trip id="bike18" depart="36.00" from="366527816#4" to="-310728722#0" type="bicycle"/>
    <trip id="bike19" depart="38.00" from="24221154#0" to="-222183031" type="bicycle"/>
    <trip id="bike20" depart="40.00" from="30679732#1" to="151178680" type="bicycle"/>
    <trip id="bike21" depart="42.00" from="19882354" to="14746490#7" type="bicycle"/>
    <trip id="bike22" depart="44.00" from="375687205#0" to="219931305#0" type="bicycle"/>
    <trip id="bike23" depart="46.00" from="-403367818#1" to="253257355#0" type="bicycle"/>
    <trip id="bike24" depart="48.00" from="233810258" to="-23209221#6" type="bicycle"/>
    <trip id="bike25" depart="50.00" from="4006129#1" to="24382162#2" type="bicycle"/>
    <trip id="bike26" depart="52.00" from="-189146659#2" to="133669149#9" type="bicycle"/>
    <trip id="bike27" depart="54.00" from="4006096#1" to="127701248#1" type="bicycle"/>
    <trip id="bike28" depart="56.00" from="-34872563#7" to="98243535" type="bicycle"/>
    <trip id="bike29" depart="58.00" from="468563689" to="253257582#1" type="bicycle"/>
    <trip id="bike30" depart="60.00" from="15807911#0" to="123991331#0" type="bicycle"/>
    <trip id="bike31" depart="62.00" from="-24221159#1" to="253255126" type="bicycle"/>
    <trip id="bike32" depart="64.00" from="271664959#1" to="298236444#0" type="bicycle"/>
    <trip id="bike33" depart="66.00" from="-23502703#2" to="-302108709#0" type="bicycle"/>
    <trip id="bike34" depart="68.00" from="253257581#0" to="34109835#1" type="bicycle"/>
    <trip id="bike35" depart="70.00" from="448090102#0" to="19881825#0" type="bicycle"/>
    <trip id="bike36" depart="72.00" from="30679732#2" to="253257581#0" type="bicycle"/>
    <trip id="bike37" depart="74.00" from="218811612#0" to="366749405#0" type="bicycle"/>
    <trip id="bike38" depart="76.00" from="-14745927#4" to="98243453#0" type="bicycle"/>
    <trip id="bike39" depart="78.00" from="335458842#0" to="-31779987#0" type="bicycle"/>
    <trip id="bike40" depart="80.00" from="216696534#0" to="363812629#3" type="bicycle"/>
    <trip id="bike41" depart="82.00" from="22766229" to="203963763#3" type="bicycle"/>
    <trip id="bike42" depart="84.00" from="25714347#3" to="-24382072" type="bicycle"/>
    <trip id="bike43" depart="86.00" from="32971780" to="14746698#3" type="bicycle"/>
    <trip id="bike44" depart="88.00" from="-407507550#1" to="-22758431#0" type="bicycle"/>
    <trip id="bike45" depart="90.00" from="222183037#1" to="14746315#9" type="bicycle"/>
    <trip id="bike46" depart="92.00" from="13541126" to="14746490#11" type="bicycle"/>
    <trip id="bike47" depart="94.00" from="-403367818#1" to="64613827#1" type="bicycle"/>
    <trip id="bike48" depart="96.00" from="-222183037#2" to="403367818#1" type="bicycle"/>
    <trip id="bike49" depart="98.00" from="329385931" to="461110435#1" type="bicycle"/>
    <trip id="bike50" depart="100.00" from="24590188#1" to="403367818#1" type="bicycle"/>
    <trip id="bike51" depart="102.00" from="4005302#0" to="-4167752#6" type="bicycle"/>
    <trip id="bike52" depart="104.00" from="26129097#2" to="-24162558#0" type="bicycle"/>
    <trip id="bike53" depart="106.00" from="29185834" to="-14746315#6" type="bicycle"/>
    <trip id="bike54" depart="108.00" from="21670319#0" to="334951837#1" type="bicycle"/>
    <trip id="bike55" depart="110.00" from="33406495#1" to="219860806" type="bicycle"/>
    <trip id="bike56" depart="112.00" from="22766229" to="19882351" type="bicycle"/>
    <trip id="bike57" depart="114.00" from="42332873#0" to="26129097#3" type="bicycle"/>
    <trip id="bike58" depart="116.00" from="-503004021#2" to="244751317#0" type="bicycle"/>
    <trip id="bike59" depart="118.00" from="22766229" to="-44073339#1" type="bicycle"/>
    <trip id="bike60" depart="120.00" from="23502703#0" to="253255126" type="bicycle"/>
    <trip id="bike61" depart="122.00" from="407507554#3" to="141297882#5" type="bicycle"/>
    <trip id="bike62" depart="124.00" from="-14746698#0" to="-160531220#2" type="bicycle"/>
    <trip id="bike63" depart="126.00" from="298937390#0" to="14746315#5" type="bicycle"/>
    <trip id="bike64" depart="128.00" from="19882354" to="232935026#4" type="bicycle"/>
    <trip id="bike65" depart="130.00" from="-222183037#11" to="-312133639" type="bicycle"/>
    <trip id="bike66" depart="132.00" from="-153813480#2" to="-4167752#7" type="bicycle"/>
    <trip id="bike67" depart="134.00" from="19882353" to="29185834" type="bicycle"/>
    <trip id="bike68" depart="136.00" from="-503004018#5" to="98243453#1" type="bicycle"/>
    <trip id="bike69" depart="138.00" from="98243535" to="-219860806" type="bicycle"/>
    <trip id="bike70" depart="140.00" from="24382202" to="23483898#1" type="bicycle"/>
    <trip id="bike71" depart="142.00" from="363412670#5" to="98243453#0-AddedOffRampEdge" type="bicycle"/>
    <trip id="bike72" depart="144.00" from="-338717365#0" to="98243457#1" type="bicycle"/>
    <trip id="bike73" depart="146.00" from="-31779987#2" to="14746490#9" type="bicycle"/>
    <trip id="bike74" depart="148.00" from="-4165511#0" to="36924904#0" type="bicycle"/>
    <trip id="bike75" depart="150.00" from="50886938#4" to="-340533303#0" type="bicycle"/>
    <trip id="bike76" depart="152.00" from="503003069#5" to="98243453#1-AddedOffRampEdge" type="bicycle"/>
    <trip id="bike77" depart="154.00" from="14746490#6" to="218787177#2" type="bicycle"/>
    <trip id="bike78" depart="156.00" from="-14743298#4" to="-23209182#0" type="bicycle"/>
    <trip id="bike79" depart="158.00" from="-503004021#8" to="98243455" type="bicycle"/>
    <trip id="bike80" depart="160.00" from="-41363149#5" to="14746315#9" type="bicycle"/>
    <trip id="bike81" depart="162.00" from="-209117096#2" to="-35155436#0" type="bicycle"/>
    <trip id="bike82" depart="164.00" from="-248061547" to="156532380#1" type="bicycle"/>
    <trip id="bike83" depart="166.00" from="30759017" to="218811816#3" type="bicycle"/>
    <trip id="bike84" depart="168.00" from="24382119#0" to="-356783203" type="bicycle"/>
    <trip id="bike85" depart="170.00" from="-13540489#0" to="220011895" type="bicycle"/>
    <trip id="bike86" depart="172.00" from="-407507550#0" to="219845959#1" type="bicycle"/>
    <trip id="bike87" depart="174.00" from="98243453#1" to="326475603" type="bicycle"/>
    <trip id="bike88" depart="176.00" from="367536576#4" to="203963763#2" type="bicycle"/>
    <trip id="bike89" depart="178.00" from="98243457#1" to="253257351#0" type="bicycle"/>
    <trip id="bike90" depart="180.00" from="34392719#0" to="4005326" type="bicycle"/>
    <trip id="bike91" depart="182.00" from="-146327581#1" to="222183037#7" type="bicycle"/>
    <trip id="bike92" depart="184.00" from="407507551#0" to="253257582#2" type="bicycle"/>
    <trip id="bike93" depart="186.00" from="22689358" to="-349597893" type="bicycle"/>
    <trip id="bike94" depart="188.00" from="32971625" to="24221154#6" type="bicycle"/>
    <trip id="bike95" depart="190.00" from="-312133838" to="4674895#1" type="bicycle"/>
    <trip id="bike96" depart="192.00" from="98243453#1" to="334951837#1" type="bicycle"/>
    <trip id="bike97" depart="194.00" from="24590188#1" to="-193043054#0" type="bicycle"/>
    <trip id="bike98" depart="196.00" from="-24382162#2" to="123991331#0" type="bicycle"/>
    <trip id="bike99" depart="198.00" from="123991331#0" to="15090081" type="bicycle"/>
    <trip id="bike100" depart="200.00" from="189607533#1" to="338717365#0" type="bicycle"/>
    <trip id="bike101" depart="202.00" from="-219860805#0" to="76536406" type="bicycle"/>
    <trip id="bike102" depart="204.00" from="19882350#1" to="-4165502#0" type="bicycle"/>
    <trip id="bike103" depart="206.00" from="-503004021#8" to="-253257351#1" type="bicycle"/>
    <trip id="bike104" depart="208.00" from="-23209182#1" to="329385931" type="bicycle"/>
    <trip id="bike105" depart="210.00" from="297759222#1" to="26171446#1" type="bicycle"/>
    <trip id="bike106" depart="212.00" from="14973829" to="-23209182#0" type="bicycle"/>
    <trip id="bike107" depart="214.00" from="427501181#1-AddedOnRampEdge" to="448090102#0" type="bicycle"/>
    <trip id="bike108" depart="216.00" from="242082372#0" to="25714334#1" type="bicycle"/>
    <trip id="bike109" depart="218.00" from="60833662#0" to="-14746315#7" type="bicycle"/>
    <trip id="bike110" depart="220.00" from="-24039504#3" to="13538433#7" type="bicycle"/>
    <trip id="bike111" depart="222.00" from="189146646" to="-24382119#0" type="bicycle"/>
    <trip id="bike112" depart="224.00" from="59259509" to="-8587906#5" type="bicycle"/>
    <trip id="bike113" depart="226.00" from="219845317#0" to="222183037#19" type="bicycle"/>
    <trip id="bike114" depart="228.00" from="98243535" to="24221155#0" type="bicycle"/>
    <trip id="bike115" depart="230.00" from="363412670#0" to="-222183037#16" type="bicycle"/>
    <trip id="bike116" depart="232.00" from="76699170#4" to="503003069#4" type="bicycle"/>
    <trip id="bike117" depart="234.00" from="4988202#8" to="4006129#6" type="bicycle"/>
    <trip id="bike118" depart="236.00" from="222183027" to="123991331#1" type="bicycle"/>
    <trip id="bike119" depart="238.00" from="299156858#0" to="218811816#0" type="bicycle"/>
    <trip id="bike120" depart="240.00" from="33111441#0" to="19882352" type="bicycle"/>
    <trip id="bike121" depart="242.00" from="76699170#9" to="329385931" type="bicycle"/>
    <trip id="bike122" depart="244.00" from="5134264#1" to="-222183031" type="bicycle"/>
    <trip id="bike123" depart="246.00" from="-115685629#2" to="428965774" type="bicycle"/>
    <trip id="bike124" depart="248.00" from="13541130" to="363812629#1" type="bicycle"/>
    <trip id="bike125" depart="250.00" from="-14745927#4" to="367536576#4" type="bicycle"/>
    <trip id="bike126" depart="252.00" from="-28614656#0" to="19881825#1" type="bicycle"/>
    <trip id="bike127" depart="254.00" from="-24529312#0" to="44073329" type="bicycle"/>
    <trip id="bike128" depart="256.00" from="219845317#0" to="222183037#9" type="bicycle"/>
    <trip id="bike129" depart="258.00" from="293191369#3" to="-23209182#0" type="bicycle"/>
    <trip id="bike130" depart="260.00" from="19882353" to="-24221154#0" type="bicycle"/>
    <trip id="bike131" depart="262.00" from="123991331#0" to="-23143677#3" type="bicycle"/>
    <trip id="bike132" depart="264.00" from="-334951836#2" to="293191369#3" type="bicycle"/>
    <trip id="bike133" depart="266.00" from="367536576#3" to="-14743919#3" type="bicycle"/>
    <trip id="bike134" depart="268.00" from="253257582#1" to="-335458842#2" type="bicycle"/>
    <trip id="bike135" depart="270.00" from="218787177#0" to="-219845959#1" type="bicycle"/>
    <trip id="bike136" depart="272.00" from="-83070604#2" to="-14746315#6" type="bicycle"/>
    <trip id="bike137" depart="274.00" from="24382119#1" to="-334951836#2" type="bicycle"/>
    <trip id="bike138" depart="276.00" from="64613827#1" to="14746315#6" type="bicycle"/>
    <trip id="bike139" depart="278.00" from="-23502703#2" to="22942636" type="bicycle"/>
    <trip id="bike140" depart="280.00" from="42332873#0" to="219860805#0" type="bicycle"/>
    <trip id="bike141" depart="282.00" from="216696534#0" to="24221156#2" type="bicycle"/>
    <trip id="bike142" depart="284.00" from="-312133838" to="-22635253#2" type="bicycle"/>
    <trip id="bike143" depart="286.00" from="-13541122#1" to="341352423#5" type="bicycle"/>
    <trip id="bike144" depart="288.00" from="-44073335#0" to="98243454" type="bicycle"/>
    <trip id="bike145" depart="290.00" from="219930010#0" to="25535043#0" type="bicycle"/>
    <trip id="bike146" depart="292.00" from="367536576#3" to="156532380#2" type="bicycle"/>
    <trip id="bike147" depart="294.00" from="4165502#0" to="-494886774" type="bicycle"/>
    <trip id="bike148" depart="296.00" from="31779987#0" to="4006138" type="bicycle"/>
    <trip id="bike149" depart="298.00" from="-41789166#1" to="363812629#3" type="bicycle"/>
    <trip id="bike150" depart="300.00" from="50886938#4" to="-112644339#0" type="bicycle"/>
    <trip id="bike151" depart="302.00" from="461110435#0" to="-222183031" type="bicycle"/>
    <trip id="bike152" depart="304.00" from="366527817#0" to="-446793601#0" type="bicycle"/>
    <trip id="bike153" depart="306.00" from="297759022#0" to="33111441#0" type="bicycle"/>
    <trip id="bike154" depart="308.00" from="109969692#1" to="302007828#0" type="bicycle"/>
    <trip id="bike155" depart="310.00" from="503003069#5" to="-26171446#1" type="bicycle"/>
    <trip id="bike156" depart="312.00" from="14973829" to="34320454#1" type="bicycle"/>
    <trip id="bike157" depart="314.00" from="24382159" to="366749405#0" type="bicycle"/>
    <trip id="bike158" depart="316.00" from="-407507553#1" to="-248061547" type="bicycle"/>
    <trip id="bike159" depart="318.00" from="133669149#3" to="-435295767#0" type="bicycle"/>
    <trip id="bike160" depart="320.00" from="28614611" to="214533615#2" type="bicycle"/>
    <trip id="bike161" depart="322.00" from="-14746315#10" to="448090102#0" type="bicycle"/>
    <trip id="bike162" depart="324.00" from="98243453#0" to="19881842" type="bicycle"/>
    <trip id="bike163" depart="326.00" from="-24382070#3" to="29185834" type="bicycle"/>
    <trip id="bike164" depart="328.00" from="-312133838" to="31779987#0" type="bicycle"/>
    <trip id="bike165" depart="330.00" from="-25534783#3" to="22942636" type="bicycle"/>
    <trip id="bike166" depart="332.00" from="22766229" to="22689355#1" type="bicycle"/>
    <trip id="bike167" depart="334.00" from="427501181#1" to="253255498#1" type="bicycle"/>
    <trip id="bike168" depart="336.00" from="193043054#2" to="222183037#6" type="bicycle"/>
    <trip id="bike169" depart="338.00" from="42332872#1" to="403367818#1" type="bicycle"/>
    <trip id="bike170" depart="340.00" from="-34392719#0" to="98243453#0" type="bicycle"/>
    <trip id="bike171" depart="342.00" from="34398517" to="127701141" type="bicycle"/>
    <trip id="bike172" depart="344.00" from="23209190" to="503004021#5" type="bicycle"/>
    <trip id="bike173" depart="346.00" from="-31779987#2" to="26171361#1" type="bicycle"/>
    <trip id="bike174" depart="348.00" from="123991331#0" to="-13541130" type="bicycle"/>
    <trip id="bike175" depart="350.00" from="-115685629#4" to="-500300650#1" type="bicycle"/>
    <trip id="bike176" depart="352.00" from="253257582#1" to="193043054#2" type="bicycle"/>
    <trip id="bike177" depart="354.00" from="-302298890#0" to="24603775#2" type="bicycle"/>
    <trip id="bike178" depart="356.00" from="-435288254#0" to="-23209216#0" type="bicycle"/>
    <trip id="bike179" depart="358.00" from="26171447" to="-34857878#1" type="bicycle"/>
    <trip id="bike180" depart="360.00" from="141001277#1" to="-286809516#2" type="bicycle"/>
    <trip id="bike181" depart="362.00" from="-24162524#2" to="14746566" type="bicycle"/>
    <trip id="bike182" depart="364.00" from="-156532380#3" to="-4165502#0" type="bicycle"/>
    <trip id="bike183" depart="366.00" from="-222183037#3" to="334951836#1" type="bicycle"/>
    <trip id="bike184" depart="368.00" from="218787177#1" to="-248061547" type="bicycle"/>
    <trip id="bike185" depart="370.00" from="-407154121" to="98243452" type="bicycle"/>
    <trip id="bike186" depart="372.00" from="367536576#3" to="23209195" type="bicycle"/>
    <trip id="bike187" depart="374.00" from="118774002#6" to="14746566" type="bicycle"/>
    <trip id="bike188" depart="376.00" from="-24162437#1" to="-62207371#0" type="bicycle"/>
    <trip id="bike189" depart="378.00" from="-22635253#2" to="253257581#0" type="bicycle"/>
    <trip id="bike190" depart="380.00" from="13541126" to="-216566473" type="bicycle"/>
    <trip id="bike191" depart="382.00" from="341352423#3" to="98243453#1" type="bicycle"/>
    <trip id="bike192" depart="384.00" from="428965774" to="4674895#1" type="bicycle"/>
    <trip id="bike193" depart="386.00" from="24221155#0" to="131355232#1" type="bicycle"/>
    <trip id="bike194" depart="388.00" from="-200694048#5" to="19881833" type="bicycle"/>
    <trip id="bike195" depart="390.00" from="4018705" to="286809516#1" type="bicycle"/>
    <trip id="bike196" depart="392.00" from="216696534#0" to="-24221157#3" type="bicycle"/>
    <trip id="bike197" depart="394.00" from="50886938#0" to="29185834" type="bicycle"/>
    <trip id="bike198" depart="396.00" from="-177604960#8" to="123991331#0" type="bicycle"/>
    <trip id="bike199" depart="398.00" from="-14746315#4" to="334951837#1" type="bicycle"/>
    <trip id="bike200" depart="400.00" from="153813488#1" to="32971627#0" type="bicycle"/>
    <trip id="bike201" depart="402.00" from="445664696" to="407215251#1" type="bicycle"/>
    <trip id="bike202" depart="404.00" from="-248061547" to="98243453#0" type="bicycle"/>
    <trip id="bike203" depart="406.00" from="189146646" to="253257582#1" type="bicycle"/>
    <trip id="bike204" depart="408.00" from="34320454#1" to="160531220#2" type="bicycle"/>
    <trip id="bike205" depart="410.00" from="24221150#2" to="19882351" type="bicycle"/>
    <trip id="bike206" depart="412.00" from="-503003069#4" to="123991331#0" type="bicycle"/>
    <trip id="bike207" depart="414.00" from="4165502#0" to="-327522511#3" type="bicycle"/>
    <trip id="bike208" depart="416.00" from="-83070600#1" to="-302105470#0" type="bicycle"/>
    <trip id="bike209" depart="418.00" from="-222183037#0" to="-50886984#1" type="bicycle"/>
    <trip id="bike210" depart="420.00" from="-4988202#5" to="29185834" type="bicycle"/>
    <trip id="bike211" depart="422.00" from="218811816#4" to="123992173" type="bicycle"/>
    <trip id="bike212" depart="424.00" from="58741183#0" to="42332872#1" type="bicycle"/>
    <trip id="bike213" depart="426.00" from="-4988202#3" to="-24221154#8" type="bicycle"/>
    <trip id="bike214" depart="428.00" from="98243455" to="50886938#4" type="bicycle"/>
    <trip id="bike215" depart="430.00" from="14746490#0" to="19882351" type="bicycle"/>
    <trip id="bike216" depart="432.00" from="98243535" to="-4988202#1" type="bicycle"/>
    <trip id="bike217" depart="434.00" from="22689358" to="-244751317#0" type="bicycle"/>
    <trip id="bike218" depart="436.00" from="-189146659#0" to="160531218#1" type="bicycle"/>
    <trip id="bike219" depart="438.00" from="14746490#6" to="-341352423#8" type="bicycle"/>
    <trip id="bike220" depart="440.00" from="98243453#0-AddedOffRampEdge" to="-24382120#3" type="bicycle"/>
    <trip id="bike221" depart="442.00" from="-363250047#3" to="34398529#1" type="bicycle"/>
    <trip id="bike222" depart="444.00" from="511532422#0" to="-407507555" type="bicycle"/>
    <trip id="bike223" depart="446.00" from="141001277#1" to="503004021#2" type="bicycle"/>
    <trip id="bike224" depart="448.00" from="-358284777#0" to="64613827#1" type="bicycle"/>
    <trip id="bike225" depart="450.00" from="121948129#1" to="31779987#0" type="bicycle"/>
    <trip id="bike226" depart="452.00" from="-261803393#0" to="24221150#2" type="bicycle"/>
    <trip id="bike227" depart="454.00" from="461110435#0" to="24221154#1" type="bicycle"/>
    <trip id="bike228" depart="456.00" from="-35155436#0" to="-118774002#8" type="bicycle"/>
    <trip id="bike229" depart="458.00" from="-23143677#4" to="-28614656#0" type="bicycle"/>
    <trip id="bike230" depart="460.00" from="123992173" to="-4988202#5" type="bicycle"/>
    <trip id="bike231" depart="462.00" from="253255498#1" to="-23689279#1" type="bicycle"/>
    <trip id="bike232" depart="464.00" from="-293191369#4" to="-216264122#0" type="bicycle"/>
    <trip id="bike233" depart="466.00" from="-200694048#4" to="403367818#1" type="bicycle"/>
    <trip id="bike234" depart="468.00" from="-26171361#1" to="24267451" type="bicycle"/>
    <trip id="bike235" depart="470.00" from="24221150#2" to="-4988202#4" type="bicycle"/>
    <trip id="bike236" depart="472.00" from="24221154#2" to="-23110966#0" type="bicycle"/>
    <trip id="bike237" depart="474.00" from="-50886984#0" to="28614359" type="bicycle"/>
    <trip id="bike238" depart="476.00" from="98243457#1" to="14745927#4" type="bicycle"/>
    <trip id="bike239" depart="478.00" from="203963763#2" to="98243457#1" type="bicycle"/>
    <trip id="bike240" depart="480.00" from="335458843#2" to="-500300650#1" type="bicycle"/>
    <trip id="bike241" depart="482.00" from="335458842#2" to="29185834" type="bicycle"/>
    <trip id="bike242" depart="484.00" from="98243454" to="-500300650#1" type="bicycle"/>
    <trip id="bike243" depart="486.00" from="14973829" to="58741184#1" type="bicycle"/>
    <trip id="bike244" depart="488.00" from="448090102#2" to="212507396" type="bicycle"/>
    <trip id="bike245" depart="490.00" from="22766229" to="200694048#5" type="bicycle"/>
    <trip id="bike246" depart="492.00" from="-24603775#2" to="302105470#0" type="bicycle"/>
    <trip id="bike247" depart="494.00" from="-23143684#4" to="23209181#1" type="bicycle"/>
    <trip id="bike248" depart="496.00" from="62207368#1" to="4006138" type="bicycle"/>
    <trip id="bike249" depart="498.00" from="13538418" to="219144643" type="bicycle"/>
    <trip id="bike250" depart="500.00" from="-24529312#1" to="29185834" type="bicycle"/>
    <trip id="bike251" depart="502.00" from="-24159276#2" to="286809509#0" type="bicycle"/>
    <trip id="bike252" depart="504.00" from="-494886775" to="-341352423#7" type="bicycle"/>
    <trip id="bike253" depart="506.00" from="-112644339#0" to="448090102#0" type="bicycle"/>
    <trip id="bike254" depart="508.00" from="98243453#0" to="177604960#7" type="bicycle"/>
    <trip id="bike255" depart="510.00" from="-24221148#1" to="154645357#1" type="bicycle"/>
    <trip id="bike256" depart="512.00" from="22635253#2" to="5134264#1" type="bicycle"/>
    <trip id="bike257" depart="514.00" from="461110435#3" to="64613827#1" type="bicycle"/>
    <trip id="bike258" depart="516.00" from="-23110961" to="367536576#1" type="bicycle"/>
    <trip id="bike259" depart="518.00" from="41789174#0" to="-189146646" type="bicycle"/>
    <trip id="bike260" depart="520.00" from="35155436#0" to="-302007829#0" type="bicycle"/>
    <trip id="bike261" depart="522.00" from="219144649" to="-24221148#1" type="bicycle"/>
    <trip id="bike262" depart="524.00" from="253257353" to="24382056" type="bicycle"/>
    <trip id="bike263" depart="526.00" from="44073338" to="42332872#1" type="bicycle"/>
    <trip id="bike264" depart="528.00" from="4006129#1" to="338717358#1" type="bicycle"/>
    <trip id="bike265" depart="530.00" from="83070603#4" to="327522510#0" type="bicycle"/>
    <trip id="bike266" depart="532.00" from="162582242#1" to="335458843#2" type="bicycle"/>
    <trip id="bike267" depart="534.00" from="98243453#0" to="-14743919#3" type="bicycle"/>
    <trip id="bike268" depart="536.00" from="358284777#0" to="-24529312#1" type="bicycle"/>
    <trip id="bike269" depart="538.00" from="431327302" to="34398517" type="bicycle"/>
    <trip id="bike270" depart="540.00" from="29185834" to="-219845960" type="bicycle"/>
    <trip id="bike271" depart="542.00" from="375687205#1" to="448090102#3" type="bicycle"/>
    <trip id="bike272" depart="544.00" from="-24603744#1" to="222183037#6" type="bicycle"/>
    <trip id="bike273" depart="546.00" from="253257582#1" to="-60834257" type="bicycle"/>
    <trip id="bike274" depart="548.00" from="219931305#0" to="218811816#0" type="bicycle"/>
    <trip id="bike275" depart="550.00" from="-24159283#4" to="14746490#9" type="bicycle"/>
    <trip id="bike276" depart="552.00" from="-24382059" to="-76699170#4" type="bicycle"/>
    <trip id="bike277" depart="554.00" from="4006133" to="218811816#0" type="bicycle"/>
    <trip id="bike278" depart="556.00" from="-14746315#6" to="-177604960#11" type="bicycle"/>
    <trip id="bike279" depart="558.00" from="232935026#4" to="216647780" type="bicycle"/>
    <trip id="bike280" depart="560.00" from="-4167752#5" to="13540502#1" type="bicycle"/>
    <trip id="bike281" depart="562.00" from="39162399" to="14746490#1" type="bicycle"/>
    <trip id="bike282" depart="564.00" from="141001277#1" to="41362978#2" type="bicycle"/>
    <trip id="bike283" depart="566.00" from="218787180#1" to="31733044#1" type="bicycle"/>
    <trip id="bike284" depart="568.00" from="-4005312#0" to="367536576#1" type="bicycle"/>
    <trip id="bike285" depart="570.00" from="23960689" to="219860808" type="bicycle"/>
    <trip id="bike286" depart="572.00" from="4005317#0" to="98243535" type="bicycle"/>
    <trip id="bike287" depart="574.00" from="214533615#2" to="24221156#3" type="bicycle"/>
    <trip id="bike288" depart="576.00" from="4005312#2" to="14742783#1" type="bicycle"/>
    <trip id="bike289" depart="578.00" from="-219845317#0" to="36924915" type="bicycle"/>
    <trip id="bike290" depart="580.00" from="42332877" to="-13540492#1" type="bicycle"/>
    <trip id="bike291" depart="582.00" from="115685631" to="4006138" type="bicycle"/>
    <trip id="bike292" depart="584.00" from="36924916" to="22942636" type="bicycle"/>
    <trip id="bike293" depart="586.00" from="322399445#0" to="-494886763#0" type="bicycle"/>
    <trip id="bike294" depart="588.00" from="14973755" to="341352423#5" type="bicycle"/>
    <trip id="bike295" depart="590.00" from="-23630613#1" to="222183037#17" type="bicycle"/>
    <trip id="bike296" depart="592.00" from="218811509#1" to="133669149#3" type="bicycle"/>
    <trip id="bike297" depart="594.00" from="448090102#2" to="62207371#0" type="bicycle"/>
    <trip id="bike298" depart="596.00" from="98243535" to="468563689" type="bicycle"/>
    <trip id="bike299" depart="598.00" from="14746490#1" to="-500300650#1" type="bicycle"/>
    <trip id="bike300" depart="600.00" from="58741184#1" to="-24382072" type="bicycle"/>
    <trip id="bike301" depart="602.00" from="98243457#1" to="76536405" type="bicycle"/>
    <trip id="bike302" depart="604.00" from="-14745927#4" to="21669971" type="bicycle"/>
    <trip id="bike303" depart="606.00" from="24382104#3" to="24221156#3" type="bicycle"/>
    <trip id="bike304" depart="608.00" from="428965774" to="26171361#2" type="bicycle"/>
    <trip id="bike305" depart="610.00" from="75838577#2" to="-403367818#4" type="bicycle"/>
    <trip id="bike306" depart="612.00" from="-23502703#2" to="-461110435#1" type="bicycle"/>
    <trip id="bike307" depart="614.00" from="-219860805#0" to="4006127" type="bicycle"/>
    <trip id="bike308" depart="616.00" from="41789166#1" to="22689355#1" type="bicycle"/>
    <trip id="bike309" depart="618.00" from="-48890615#1" to="-26171446#2" type="bicycle"/>
    <trip id="bike310" depart="620.00" from="24221156#3" to="23209195" type="bicycle"/>
    <trip id="bike311" depart="622.00" from="367039035#2" to="-14746315#15" type="bicycle"/>
    <trip id="bike312" depart="624.00" from="219931303" to="-24221154#0" type="bicycle"/>
    <trip id="bike313" depart="626.00" from="34398517" to="503003069#0" type="bicycle"/>
    <trip id="bike314" depart="628.00" from="29185834" to="338717367#0" type="bicycle"/>
    <trip id="bike315" depart="630.00" from="123990366#1" to="-13540489#1" type="bicycle"/>
    <trip id="bike316" depart="632.00" from="-334797593#0" to="34720695" type="bicycle"/>
    <trip id="bike317" depart="634.00" from="-327522511#3" to="123991331#1" type="bicycle"/>
    <trip id="bike318" depart="636.00" from="-24603775#1" to="428965774" type="bicycle"/>
    <trip id="bike319" depart="638.00" from="-407154121" to="-76699170#1" type="bicycle"/>
    <trip id="bike320" depart="640.00" from="41362978#2" to="6147946" type="bicycle"/>
    <trip id="bike321" depart="642.00" from="-327522509#2" to="4006133" type="bicycle"/>
    <trip id="bike322" depart="644.00" from="298236444#0" to="311030155#0" type="bicycle"/>
    <trip id="bike323" depart="646.00" from="326994924#0" to="31779987#0" type="bicycle"/>
    <trip id="bike324" depart="648.00" from="23209221#4" to="219860803#0" type="bicycle"/>
    <trip id="bike325" depart="650.00" from="-327522508" to="127701141" type="bicycle"/>
    <trip id="bike326" depart="652.00" from="98243457#1" to="98243453#1" type="bicycle"/>
    <trip id="bike327" depart="654.00" from="98243454" to="127701141" type="bicycle"/>
    <trip id="bike328" depart="656.00" from="300579849" to="24221156#3" type="bicycle"/>