<?xml version="1.0"?>
<!-- generated on 2017-10-31 11:35:01.108724 by $Id$
  options: config/toronto.net.xml
-->
<routes xmlns:xsi="http://www.w3.org/2001/XMLSchema-instance" xsi:noNamespaceSchemaLocation="http://sumo.dlr.de/xsd/routes_file.xsd">
    <vType id="pedestrian" vClass="pedestrian" speedFactor="1.3"/>
    <person id="ped0" depart="0.00">
        <walk from="19881825#0" to="31779987#0"/>
    </person>
    <person id="ped1" depart="2.00">
        <walk from="32971780" to="-160531219#1"/>
    </person>
    <person id="ped2" depart="4.00">
        <walk from="22766229" to="297759022#0"/>
    </person>
    <person id="ped3" depart="6.00">
        <walk from="98243453#0" to="334951836#2"/>
    </person>
    <person id="ped4" depart="8.00">
        <walk from="216566468" to="58741183#0"/>
    </person>
    <person id="ped5" depart="10.00">
        <walk from="278430754" to="428965774"/>
    </person>
    <person id="ped6" depart="12.00">
        <walk from="-31779987#2" to="98243454"/>
    </person>
    <person id="ped7" depart="14.00">
        <walk from="503004021#2" to="133669149#7"/>
    </person>
    <person id="ped8" depart="16.00">
        <walk from="4165502#0" to="4005317#0"/>
    </person>
    <person id="ped9" depart="18.00">
        <walk from="-302007828#0" to="127701141"/>
    </person>
    <person id="ped10" depart="20.00">
        <walk from="4165502#1" to="352799162#4"/>
    </person>
    <person id="ped11" depart="22.00">
        <walk from="23143717#1" to="42332872#1"/>
    </person>
    <person id="ped12" depart="24.00">
        <walk from="342652996#1" to="236611341#1"/>
    </person>
    <person id="ped13" depart="26.00">
        <walk from="151178680" to="98243535"/>
    </person>
    <person id="ped14" depart="28.00">
        <walk from="-4006129#2" to="314965699#1"/>
    </person>
    <person id="ped15" depart="30.00">
        <walk from="427501181#1" to="4006129#2"/>
    </person>
    <person id="ped16" depart="32.00">
        <walk from="-14743177#1" to="-13540497#0"/>
    </person>
    <person id="ped17" depart="34.00">
        <walk from="26171361#1" to="216525620#1"/>
    </person>
    <person id="ped18" depart="36.00">
        <walk from="-76699170#9" to="5686845#2"/>
    </person>
    <person id="ped19" depart="38.00">
        <walk from="-301176835#1" to="22635253#1"/>
    </person>
    <person id="ped20" depart="40.00">
        <walk from="-219845317#0" to="-23502722#2"/>
    </person>
    <person id="ped21" depart="42.00">
        <walk from="-13540489#0" to="240852334"/>
    </person>
    <person id="ped22" depart="44.00">
        <walk from="32971625" to="-14743177#1"/>
    </person>
    <person id="ped23" depart="46.00">
        <walk from="-14746315#2" to="358284777#0"/>
    </person>
    <person id="ped24" depart="48.00">
        <walk from="300579849" to="-34857878#1"/>
    </person>
    <person id="ped25" depart="50.00">
        <walk from="-4005312#2" to="123991331#1"/>
    </person>
    <person id="ped26" depart="52.00">
        <walk from="4006129#1" to="-24382070#1"/>
    </person>
    <person id="ped27" depart="54.00">
        <walk from="218787177#1" to="39162399"/>
    </person>
    <person id="ped28" depart="56.00">
        <walk from="44073328#0" to="-34857878#1"/>
    </person>
    <person id="ped29" depart="58.00">
        <walk from="503004021#6" to="-41362977#1"/>
    </person>
    <person id="ped30" depart="60.00">
        <walk from="503003069#3" to="39162399"/>
    </person>
    <person id="ped31" depart="62.00">
        <walk from="98243457#0-AddedOffRampEdge" to="14743177#1"/>
    </person>
    <person id="ped32" depart="64.00">
        <walk from="30679732#2" to="222183037#17"/>
    </person>
    <person id="ped33" depart="66.00">
        <walk from="13540492#1" to="427501181#0"/>
    </person>
    <person id="ped34" depart="68.00">
        <walk from="-41166486" to="219860808"/>
    </person>
    <person id="ped35" depart="70.00">
        <walk from="322399445#0" to="-349597893"/>
    </person>
    <person id="ped36" depart="72.00">
        <walk from="-115685629#4" to="-445664696"/>
    </person>
    <person id="ped37" depart="74.00">
        <walk from="76536405" to="34392719#2"/>
    </person>
    <person id="ped38" depart="76.00">
        <walk from="189607533#1" to="14746698#3"/>
    </person>
    <person id="ped39" depart="78.00">
        <walk from="-24603744#1" to="503003069#3"/>
    </person>
    <person id="ped40" depart="80.00">
        <walk from="98243453#1" to="24382162#2"/>
    </person>
    <person id="ped41" depart="82.00">
        <walk from="271664520" to="-500300650#3"/>
    </person>
    <person id="ped42" depart="84.00">
        <walk from="123991331#1-AddedOnRampEdge" to="98243535"/>
    </person>
    <person id="ped43" depart="86.00">
        <walk from="98243535" to="14745927#4"/>
    </person>
    <person id="ped44" depart="88.00">
        <walk from="-340533303#0" to="32971625"/>
    </person>
    <person id="ped45" depart="90.00">
        <walk from="22766229" to="-13538420#1"/>
    </person>
    <person id="ped46" depart="92.00">
        <walk from="468563689" to="253255498#0"/>
    </person>
    <person id="ped47" depart="94.00">
        <walk from="-76699170#1" to="503003069#5"/>
    </person>
    <person id="ped48" depart="96.00">
        <walk from="42332877" to="427501183"/>
    </person>
    <person id="ped49" depart="98.00">
        <walk from="98243453#0" to="253257582#1"/>
    </person>
    <person id="ped50" depart="100.00">
        <walk from="216696534#0" to="222183037#19"/>
    </person>
    <person id="ped51" depart="102.00">
        <walk from="293191154#0" to="298236442"/>
    </person>
    <person id="ped52" depart="104.00">
        <walk from="-24162524#6" to="98243454"/>
    </person>
    <person id="ped53" depart="106.00">
        <walk from="45476266#3" to="41112543#1"/>
    </person>
    <person id="ped54" depart="108.00">
        <walk from="349597893" to="218811612#0"/>
    </person>
    <person id="ped55" depart="110.00">
        <walk from="123991331#0" to="24162437#3"/>
    </person>
    <person id="ped56" depart="112.00">
        <walk from="219931303" to="299156858#0"/>
    </person>
    <person id="ped57" depart="114.00">
        <walk from="-13540497#0" to="4006134#2"/>
    </person>
    <person id="ped58" depart="116.00">
        <walk from="22766229" to="-363250047#2"/>
    </person>
    <person id="ped59" depart="118.00">
        <walk from="25714347#3" to="-4006129#1"/>
    </person>
    <person id="ped60" depart="120.00">
        <walk from="468563689" to="-4988202#7"/>
    </person>
    <person id="ped61" depart="122.00">
        <walk from="14746490#1" to="-4005312#2"/>
    </person>
    <person id="ped62" depart="124.00">
        <walk from="-177604960#11" to="-26171361#0"/>
    </person>
    <person id="ped63" depart="126.00">
        <walk from="24382162#1" to="4006138"/>
    </person>
    <person id="ped64" depart="128.00">
        <walk from="-219845317#0" to="219930006"/>
    </person>
    <person id="ped65" depart="130.00">
        <walk from="19882352" to="123991331#1"/>
    </person>
    <person id="ped66" depart="132.00">
        <walk from="98243453#1" to="-14746315#10"/>
    </person>
    <person id="ped67" depart="134.00">
        <walk from="329385931" to="-26171361#1"/>
    </person>
    <person id="ped68" depart="136.00">
        <walk from="58741184#1" to="-13540489#0"/>
    </person>
    <person id="ped69" depart="138.00">
        <walk from="-76699170#2" to="-310728722#0"/>
    </person>
    <person id="ped70" depart="140.00">
        <walk from="-461110435#0" to="-434921527#0"/>
    </person>
    <person id="ped71" depart="142.00">
        <walk from="-23502722#0" to="98243453#1"/>
    </person>
    <person id="ped72" depart="144.00">
        <walk from="4005326" to="75609370"/>
    </person>
    <person id="ped73" depart="146.00">
        <walk from="24590189#1" to="64613827#1"/>
    </person>
    <person id="ped74" depart="148.00">
        <walk from="24382119#0" to="41362978#2"/>
    </person>
    <person id="ped75" depart="150.00">
        <walk from="-41166486" to="298236444#0"/>
    </person>
    <person id="ped76" depart="152.00">
        <walk from="4006138" to="133669149#9"/>
    </person>
    <person id="ped77" depart="154.00">
        <walk from="219930007#0" to="286809515#1"/>
    </person>
    <person id="ped78" depart="156.00">
        <walk from="141001279#2" to="70308166#1"/>
    </person>
    <person id="ped79" depart="158.00">
        <walk from="19882357" to="19882355"/>
    </person>
    <person id="ped80" depart="160.00">
        <walk from="242082372#0" to="50886938#4"/>
    </person>
    <person id="ped81" depart="162.00">
        <walk from="98243452" to="-24657280"/>
    </person>
    <person id="ped82" depart="164.00">
        <walk from="329385931" to="4006138"/>
    </person>
    <person id="ped83" depart="166.00">
        <walk from="-160531218#1" to="219845318#3"/>
    </person>
    <person id="ped84" depart="168.00">
        <walk from="98243452" to="34109835#1"/>
    </person>
    <person id="ped85" depart="170.00">
        <walk from="4005312#2" to="-209117096#2"/>
    </person>
    <person id="ped86" depart="172.00">
        <walk from="448258358" to="358965490"/>
    </person>
    <person id="ped87" depart="174.00">
        <walk from="98243453#0" to="34872563#9"/>
    </person>
    <person id="ped88" depart="176.00">
        <walk from="15807909" to="-390882900#0"/>
    </person>
    <person id="ped89" depart="178.00">
        <walk from="42332872#1" to="32971627#0"/>
    </person>
    <person id="ped90" depart="180.00">
        <walk from="98243454" to="60833662#0"/>
    </person>
    <person id="ped91" depart="182.00">
        <walk from="219845960" to="-335458843#1"/>
    </person>
    <person id="ped92" depart="184.00">
        <walk from="-209117096#0" to="70308166#1"/>
    </person>
    <person id="ped93" depart="186.00">
        <walk from="-302105475#0" to="-14746698#3"/>
    </person>
    <person id="ped94" depart="188.00">
        <walk from="-312133639" to="98243453#0"/>
    </person>
    <person id="ped95" depart="190.00">
        <walk from="4006127" to="-34872563#8"/>
    </person>
    <person id="ped96" depart="192.00">
        <walk from="-31779987#2" to="-4006129#1"/>
    </person>
    <person id="ped97" depart="194.00">
        <walk from="218787180#1" to="253257351#0"/>
    </person>
    <person id="ped98" depart="196.00">
        <walk from="4006138" to="34398525#0"/>
    </person>
    <person id="ped99" depart="198.00">
        <walk from="-23502703#2" to="-371542516#3"/>
    </person>
    <person id="ped100" depart="200.00">
        <walk from="22766229" to="22635253#2"/>
    </person>
    <person id="ped101" depart="202.00">
        <walk from="448090102#1" to="-222183037#16"/>
    </person>
    <person id="ped102" depart="204.00">
        <walk from="218811816#4" to="367536577#0"/>
    </person>
    <person id="ped103" depart="206.00">
        <walk from="41789175" to="352799162#0"/>
    </person>
    <person id="ped104" depart="208.00">
        <walk from="32971627#0" to="-13540492#0"/>
    </person>
    <person id="ped105" depart="210.00">
        <walk from="23473100#0" to="-4321251#1"/>
    </person>
    <person id="ped106" depart="212.00">
        <walk from="-36924912#1" to="-22635253#2"/>
    </person>
    <person id="ped107" depart="214.00">
        <walk from="271664520" to="-45476266#5"/>
    </person>
    <person id="ped108" depart="216.00">
        <walk from="219845960" to="375687205#0"/>
    </person>
    <person id="ped109" depart="218.00">
        <walk from="-215121489#1" to="14743766#7"/>
    </person>
    <person id="ped110" depart="220.00">
        <walk from="-302105470#0" to="222183027"/>
    </person>
    <person id="ped111" depart="222.00">
        <walk from="123992173" to="448090102#2"/>
    </person>
    <person id="ped112" depart="224.00">
        <walk from="24590188#1" to="-4005309#3"/>
    </person>
    <person id="ped113" depart="226.00">
        <walk from="22766229" to="-261803393#0"/>
    </person>
    <person id="ped114" depart="228.00">
        <walk from="-26171446#2" to="24590188#1"/>
    </person>
    <person id="ped115" depart="230.00">
        <walk from="4006142#2" to="98243453#1"/>
    </person>
    <person id="ped116" depart="232.00">
        <walk from="4006134#2" to="14746490#9"/>
    </person>
    <person id="ped117" depart="234.00">
        <walk from="4167752#2" to="76536405"/>
    </person>
    <person id="ped118" depart="236.00">
        <walk from="4006150#1" to="127701141"/>
    </person>
    <person id="ped119" depart="238.00">
        <walk from="338717357" to="-50886938#0"/>
    </person>
    <person id="ped120" depart="240.00">
        <walk from="427501181#1-AddedOnRampEdge" to="222183027"/>
    </person>
    <person id="ped121" depart="242.00">
        <walk from="133669149#2" to="-64613827#1"/>
    </person>
    <person id="ped122" depart="244.00">
        <walk from="23209182#0" to="219860808"/>
    </person>
    <person id="ped123" depart="246.00">
        <walk from="82576361" to="394123967#3"/>
    </person>
    <person id="ped124" depart="248.00">
        <walk from="22766229" to="-233810258"/>
    </person>
    <person id="ped125" depart="250.00">
        <walk from="224315808#2" to="98243535"/>
    </person>
    <person id="ped126" depart="252.00">
        <walk from="-248061547" to="25107931#1"/>
    </person>
    <person id="ped127" depart="254.00">
        <walk from="311639018#1" to="41789174#1"/>
    </person>
    <person id="ped128" depart="256.00">
        <walk from="-503004021#5" to="261803393#2"/>
    </person>
    <person id="ped129" depart="258.00">
        <walk from="13540489#3" to="98243455"/>
    </person>
    <person id="ped130" depart="260.00">
        <walk from="511532422#0" to="24382162#2"/>
    </person>
    <person id="ped131" depart="262.00">
        <walk from="-219860806" to="34398659#1"/>
    </person>
    <person id="ped132" depart="264.00">
        <walk from="98243454" to="253257582#0"/>
    </person>
    <person id="ped133" depart="266.00">
        <walk from="-23502703#2" to="286809516#3"/>
    </person>
    <person id="ped134" depart="268.00">
        <walk from="218787177#1" to="248061547"/>
    </person>
    <person id="ped135" depart="270.00">
        <walk from="-334951829#2" to="-219931303"/>
    </person>
    <person id="ped136" depart="272.00">
        <walk from="4018705" to="34872563#7"/>
    </person>
    <person id="ped137" depart="274.00">
        <walk from="24221156#3" to="-14746315#6"/>
    </person>
    <person id="ped138" depart="276.00">
        <walk from="28614398" to="25093216"/>
    </person>
    <person id="ped139" depart="278.00">
        <walk from="222183037#8" to="14746315#6"/>
    </person>
    <person id="ped140" depart="280.00">
        <walk from="335458842#0" to="4005309#3"/>
    </person>
    <person id="ped141" depart="282.00">
        <walk from="-232935026#4" to="253255498#0"/>
    </person>
    <person id="ped142" depart="284.00">
        <walk from="-253257351#1" to="34398517"/>
    </person>
    <person id="ped143" depart="286.00">
        <walk from="98243454" to="253257582#0"/>
    </person>
    <person id="ped144" depart="288.00">
        <walk from="-34872563#8" to="-297759022#0"/>
    </person>
    <person id="ped145" depart="290.00">
        <walk from="455493969#0" to="14743177#1"/>
    </person>
    <person id="ped146" depart="292.00">
        <walk from="-34392713" to="338717361"/>
    </person>
    <person id="ped147" depart="294.00">
        <walk from="-24529312#0" to="-24382119#3"/>
    </person>
    <person id="ped148" depart="296.00">
        <walk from="23209228" to="25107930#0"/>
    </person>
    <person id="ped149" depart="298.00">
        <walk from="-44073335#0" to="-14746315#12"/>
    </person>
    <person id="ped150" depart="300.00">
        <walk from="-407507550#0" to="32971780"/>
    </person>
    <person id="ped151" depart="302.00">
        <walk from="-4005309#4" to="22942636"/>
    </person>
    <person id="ped152" depart="304.00">
        <walk from="363412670#2" to="-14746315#10"/>
    </person>
    <person id="ped153" depart="306.00">
        <walk from="300579849" to="-219860806"/>
    </person>
    <person id="ped154" depart="308.00">
        <walk from="-327522511#3" to="219059132#1"/>
    </person>
    <person id="ped155" depart="310.00">
        <walk from="98243535" to="25535043#1"/>
    </person>
    <person id="ped156" depart="312.00">
        <walk from="222183027" to="22942636"/>
    </person>
    <person id="ped157" depart="314.00">
        <walk from="21670040" to="-13541122#1"/>
    </person>
    <person id="ped158" depart="316.00">
        <walk from="41363149#5" to="25107925#3"/>
    </person>
    <person id="ped159" depart="318.00">
        <walk from="22766229" to="24603775#1"/>
    </person>
    <person id="ped160" depart="320.00">
        <walk from="4006150#0" to="123992173"/>
    </person>
    <person id="ped161" depart="322.00">
        <walk from="-236611341#0" to="218787180#1"/>
    </person>
    <person id="ped162" depart="324.00">
        <walk from="21670319#0" to="-156532380#2"/>
    </person>
    <person id="ped163" depart="326.00">
        <walk from="-13541126" to="-23143677#2"/>
    </person>
    <person id="ped164" depart="328.00">
        <walk from="98243535" to="-219845959#1"/>
    </person>
    <person id="ped165" depart="330.00">
        <walk from="39162399" to="236611341#2"/>
    </person>
    <person id="ped166" depart="332.00">
        <walk from="-302007832#1" to="23209195"/>
    </person>
    <person id="ped167" depart="334.00">
        <walk from="-503004021#8" to="13540502#2"/>
    </person>
    <person id="ped168" depart="336.00">
        <walk from="349597893" to="98243453#1-AddedOffRampEdge"/>
    </person>
    <person id="ped169" depart="338.00">
        <walk from="218811612#2" to="-286809516#2"/>
    </person>
    <person id="ped170" depart="340.00">
        <walk from="193021602" to="25107931#1"/>
    </person>
    <person id="ped171" depart="342.00">
        <walk from="329385931" to="327522511#0"/>
    </person>
    <person id="ped172" depart="344.00">
        <walk from="-34109835#1" to="4006132#0"/>
    </person>
    <person id="ped173" depart="346.00">
        <walk from="141001277#1" to="216525620#1"/>
    </person>
    <person id="ped174" depart="348.00">
        <walk from="253257582#1" to="-24382072"/>
    </person>
    <person id="ped175" depart="350.00">
        <walk from="445890098" to="98243454"/>
    </person>
    <person id="ped176" depart="352.00">
        <walk from="24221156#3" to="24603868#2"/>
    </person>
    <person id="ped177" depart="354.00">
        <walk from="34398658" to="13538418"/>
    </person>
    <person id="ped178" depart="356.00">
        <walk from="248061547" to="23502722#1"/>
    </person>
    <person id="ped179" depart="358.00">
        <walk from="14746490#9" to="133669149#1"/>
    </person>
    <person id="ped180" depart="360.00">
        <walk from="24382120#4" to="28866882"/>
    </person>
    <person id="ped181" depart="362.00">
        <walk from="219144643" to="228017232#1"/>
    </person>
    <person id="ped182" depart="364.00">
        <walk from="302152089" to="35565617#1"/>
    </person>
    <person id="ped183" depart="366.00">
        <walk from="219930010#0" to="218811611"/>
    </person>
    <person id="ped184" depart="368.00">
        <walk from="19882353" to="219860806"/>
    </person>
    <person id="ped185" depart="370.00">
        <walk from="367536577#0" to="123991331#1"/>
    </person>
    <person id="ped186" depart="372.00">
        <walk from="14746315#7" to="-160531220#2"/>
    </person>
    <person id="ped187" depart="374.00">
        <walk from="98243535" to="-24382104#2"/>
    </person>
    <person id="ped188" depart="376.00">
        <walk from="27767453" to="4005312#1"/>
    </person>
    <person id="ped189" depart="378.00">
        <walk from="31779987#0" to="224315808#1"/>
    </person>
    <person id="ped190" depart="380.00">
        <walk from="-200694048#2" to="4005312#3"/>
    </person>
    <person id="ped191" depart="382.00">
        <walk from="22766229" to="-222183037#11"/>
    </person>
    <person id="ped192" depart="384.00">
        <walk from="36924915" to="34398525#0"/>
    </person>
    <person id="ped193" depart="386.00">
        <walk from="-62207371#0" to="461110435#0"/>
    </person>
    <person id="ped194" depart="388.00">
        <walk from="218787180#1" to="487435759"/>
    </person>
    <person id="ped195" depart="390.00">
        <walk from="176090836#0" to="-503003069#4"/>
    </person>
    <person id="ped196" depart="392.00">
        <walk from="34398663" to="219860807#0"/>
    </person>
    <person id="ped197" depart="394.00">
        <walk from="98243453#1" to="335460212"/>
    </person>
    <person id="ped198" depart="396.00">
        <walk from="-76699170#2" to="29185834"/>
    </person>
    <person id="ped199" depart="398.00">
        <walk from="253257355#0" to="141001277#1"/>
    </person>
    <person id="ped200" depart="400.00">
        <walk from="24382162#2" to="13540502#2"/>
    </person>
    <person id="ped201" depart="402.00">
        <walk from="448258358" to="352799162#1"/>
    </person>
    <person id="ped202" depart="404.00">
        <walk from="4006129#1" to="-216264122#0"/>
    </person>
    <person id="ped203" depart="406.00">
        <walk from="193043054#0" to="24221155#0"/>
    </person>
    <person id="ped204" depart="408.00">
        <walk from="-41166486" to="253257581#0"/>
    </person>
    <person id="ped205" depart="410.00">
        <walk from="24221154#2" to="109969692#1"/>
    </person>
    <person id="ped206" depart="412.00">
        <walk from="352799162#5" to="-236611341#3"/>
    </person>
    <person id="ped207" depart="414.00">
        <walk from="352799162#0" to="123991331#1"/>
    </person>
    <person id="ped208" depart="416.00">
        <walk from="298236444#0" to="219931065"/>
    </person>
    <person id="ped209" depart="418.00">
        <walk from="98243453#0" to="216696534#1"/>
    </person>
    <person id="ped210" depart="420.00">
        <walk from="435303921#0" to="-22635253#0"/>
    </person>
    <person id="ped211" depart="422.00">
        <walk from="25107931#1" to="58741179#1"/>
    </person>
    <person id="ped212" depart="424.00">
        <walk from="-4674895#1" to="307232118#1"/>
    </person>
    <person id="ped213" depart="426.00">
        <walk from="4006129#6" to="98243457#1"/>
    </person>
    <person id="ped214" depart="428.00">
        <walk from="253257582#1" to="4988202#2"/>
    </person>
    <person id="ped215" depart="430.00">
        <walk from="14746490#5" to="248061547"/>
    </person>
    <person id="ped216" depart="432.00">
        <walk from="24221156#3" to="-22758431#0"/>
    </person>
    <person id="ped217" depart="434.00">
        <walk from="219930008#2" to="253257582#1"/>
    </person>
    <person id="ped218" depart="436.00">
        <walk from="-302007832#1" to="218811816#0"/>
    </person>
    <person id="ped219" depart="438.00">
        <walk from="-240851569#0" to="327522510#1"/>
    </person>
    <person id="ped220" depart="440.00">
        <walk from="293191369#3" to="300579849"/>
    </person>
    <person id="ped221" depart="442.00">
        <walk from="19882355" to="-31779987#0"/>
    </person>
    <person id="ped222" depart="444.00">
        <walk from="24221150#2" to="366527817#0"/>
    </person>
    <person id="ped223" depart="446.00">
        <walk from="-189146659#0" to="-4006129#0"/>
    </person>
    <person id="ped224" depart="448.00">
        <walk from="127701247#1" to="83070602#1"/>
    </person>
    <person id="ped225" depart="450.00">
        <walk from="-14746490#11" to="14745927#3"/>
    </person>
    <person id="ped226" depart="452.00">
        <walk from="-14746315#3" to="25714346"/>
    </person>
    <person id="ped227" depart="454.00">
        <walk from="-14746315#7" to="22942636"/>
    </person>
    <person id="ped228" depart="456.00">
        <walk from="-41166486" to="314965699#1"/>
    </person>
    <person id="ped229" depart="458.00">
        <walk from="58741183#0" to="14973829"/>
    </person>
    <person id="ped230" depart="460.00">
        <walk from="352910385" to="461110435#0"/>
    </person>
    <person id="ped231" depart="462.00">
        <walk from="-26171361#1" to="30679732#2"/>
    </person>
    <person id="ped232" depart="464.00">
        <walk from="22766229" to="-341352423#4"/>
    </person>
    <person id="ped233" depart="466.00">
        <walk from="253255498#0" to="503003069#5"/>
    </person>
    <person id="ped234" depart="468.00">
        <walk from="-24382056" to="302152090"/>
    </person>
    <person id="ped235" depart="470.00">
        <walk from="341352423#5" to="-34872563#3"/>
    </person>
    <person id="ped236" depart="472.00">
        <walk from="367039035#0" to="363812629#3"/>
    </person>
    <person id="ped237" depart="474.00">
        <walk from="219144643" to="342652996#1"/>
    </person>
    <person id="ped238" depart="476.00">
        <walk from="216696534#1" to="-4017378#1"/>
    </person>
    <person id="ped239" depart="478.00">
        <walk from="-13541126" to="123991331#0"/>
    </person>
    <person id="ped240" depart="480.00">
        <walk from="-24603744#2" to="23502722#0"/>
    </person>
    <person id="ped241" depart="482.00">
        <walk from="300579849" to="4006129#2"/>
    </person>
    <person id="ped242" depart="484.00">
        <walk from="-35565616" to="98243535"/>
    </person>
    <person id="ped243" depart="486.00">
        <walk from="-5084883#1" to="-14743298#1"/>
    </person>
    <person id="ped244" depart="488.00">
        <walk from="253255132#1" to="-36924902"/>
    </person>
    <person id="ped245" depart="490.00">
        <walk from="253257582#1" to="-48890615#1"/>
    </person>
    <person id="ped246" depart="492.00">
        <walk from="141001279#2" to="-427501865#1"/>
    </person>
    <person id="ped247" depart="494.00">
        <walk from="366749405#2" to="342652996#1"/>
    </person>
    <person id="ped248" depart="496.00">
        <walk from="-112644339#0" to="13540497#1"/>
    </person>
    <person id="ped249" depart="498.00">
        <walk from="-26171361#1" to="511532423"/>
    </person>
    <person id="ped250" depart="500.00">
        <walk from="24603775#1" to="59259527"/>
    </person>
    <person id="ped251" depart="502.00">
        <walk from="4006127" to="-24221150#2"/>
    </person>
    <person id="ped252" depart="504.00">
        <walk from="-189146659#0" to="127701247#1"/>
    </person>
    <person id="ped253" depart="506.00">
        <walk from="253255133#0" to="191654257#1"/>
    </person>
    <person id="ped254" depart="508.00">
        <walk from="133669149#14" to="352799162#0"/>
    </person>
    <person id="ped255" depart="510.00">
        <walk from="-236611341#3" to="98243535"/>
    </person>
    <person id="ped256" depart="512.00">
        <walk from="219931303" to="14743766#1"/>
    </person>
    <person id="ped257" depart="514.00">
        <walk from="21670040" to="298236444#0"/>
    </person>
    <person id="ped258" depart="516.00">
        <walk from="19881842" to="-204666614"/>
    </person>
    <person id="ped259" depart="518.00">
        <walk from="286809509#0" to="160531220#2"/>
    </person>
    <person id="ped260" depart="520.00">
        <walk from="286809511#0" to="448258358"/>
    </person>
    <person id="ped261" depart="522.00">
        <walk from="200694048#2" to="314965699#2"/>
    </person>
    <person id="ped262" depart="524.00">
        <walk from="98243535" to="4006142#2"/>
    </person>
    <person id="ped263" depart="526.00">
        <walk from="24221150#2" to="59259512"/>
    </person>
    <person id="ped264" depart="528.00">
        <walk from="25823146#2" to="23502703#4"/>
    </person>
    <person id="ped265" depart="530.00">
        <walk from="64613827#1" to="8587906#0"/>
    </person>
    <person id="ped266" depart="532.00">
        <walk from="448090102#0" to="-312133639"/>
    </person>
    <person id="ped267" depart="534.00">
        <walk from="-292603460#0" to="-407507555"/>
    </person>
    <person id="ped268" depart="536.00">
        <walk from="22766229" to="34392719#0"/>
    </person>
    <person id="ped269" depart="538.00">
        <walk from="-4006129#3" to="428965774"/>
    </person>
    <person id="ped270" depart="540.00">
        <walk from="23483898#1" to="32971780"/>
    </person>
    <person id="ped271" depart="542.00">
        <walk from="60834257" to="363412670#1"/>
    </person>
    <person id="ped272" depart="544.00">
        <walk from="403367818#3" to="500300650#1"/>
    </person>
    <person id="ped273" depart="546.00">
        <walk from="-24382118" to="286809516#2"/>
    </person>
    <person id="ped274" depart="548.00">
        <walk from="34872563#1" to="42333308#0"/>
    </person>
    <person id="ped275" depart="550.00">
        <walk from="-24382059" to="335460212"/>
    </person>
    <person id="ped276" depart="552.00">
        <walk from="219144641" to="14746566"/>
    </person>
    <person id="ped277" depart="554.00">
        <walk from="21670040" to="24221156#3"/>
    </person>
    <person id="ped278" depart="556.00">
        <walk from="448090102#2" to="-22635253#0"/>
    </person>
    <person id="ped279" depart="558.00">
        <walk from="-156532380#1" to="334951836#1"/>
    </person>
    <person id="ped280" depart="560.00">
        <walk from="34398658" to="23209195"/>
    </person>
    <person id="ped281" depart="562.00">
        <walk from="98243457#1" to="4674553#2"/>
    </person>
    <person id="ped282" depart="564.00">
        <walk from="14973829" to="-50886984#1"/>
    </person>