<?xml version="1.0" encoding="UTF-8"?>

<!-- generated on Tue Oct 31 11:35:08 2017 by SUMO polyconvert Version 0.30.0
<?xml version="1.0" encoding="UTF-8"?>

<configuration xmlns:xsi="http://www.w3.org/2001/XMLSchema-instance" xsi:noNamespaceSchemaLocation="http://sumo.dlr.de/xsd/polyconvertConfiguration.xsd">

    <input>
        <net-file value="config/toronto.net.xml"/>
        <osm-files value="config/toronto.osm.xml"/>
        <type-file value="/Users/sebastiansoto/developer/sumo/sumo/sumo/data/typemap/osmPolyconvert.typ.xml"/>
    </input>

    <output>
        <output-file value="config/toronto.poly.xml"/>
    </output>

    <processing>
        <all-attributes value="true"/>
        <poi-layer-offset value="5"/>
    </processing>

</configuration>
-->

<additional xmlns:xsi="http://www.w3.org/2001/XMLSchema-instance" xsi:noNamespaceSchemaLocation="http://sumo.dlr.de/xsd/additional_file.xsd">
    <location netOffset="-624726.37,-4830052.10" convBoundary="-1050.48,-267.46,14056.85,10197.38" origBoundary="-79.466904,43.609690,-79.278510,43.703149" projParameter="+proj=utm +zone=17 +ellps=WGS84 +datum=WGS84 +units=m +no_defs"/>

    <poly id="100974741" type="natural" color="140,196,107" fill="1" layer="-4.00" shape="5036.59,517.20 5013.85,570.40 4979.34,624.26 4934.02,673.27 4816.98,833.63 4766.50,903.17 4656.66,1023.00 4601.20,1089.19 4574.63,1110.75 4524.72,1167.06 4504.14,1193.43 4487.00,1209.61 4454.15,1248.19 4413.96,1293.27 4403.19,1312.65 4409.77,1316.25 4468.98,1348.63 4567.33,1233.18 4635.40,1161.14 4696.41,1114.57 4713.62,1101.44 4718.66,1096.23 4806.40,1005.71 4834.59,957.65 4857.44,918.68 4904.82,841.94 4956.62,760.96 4997.35,667.68 5036.71,557.99 5036.59,517.20">
        <param key="name" value="Hanlans Point Beach (Clothing Optional)"/>
        <param key="natural" value="beach"/>
        <param key="nudism" value="yes"/>
        <param key="url" value="http://www.naturistholiday.info/Canada/1373/Hanlans_Point_Beach.aspx"/>
    </poly>
    <poly id="103177629" type="natural" color="140,196,107" fill="0" layer="-4.00" shape="8406.13,2063.19 8375.24,2064.49 8311.21,2062.78 8256.48,2057.65 8252.87,2057.31 8202.91,2060.08 8183.95,2061.12 8111.28,2058.38 8100.61,2057.63 8074.74,2055.83 8050.75,2054.17 8048.40,2051.18 8030.06,2027.87 8025.43,2011.39">
        <param key="name" value="Wards Island Beach"/>
        <param key="natural" value="beach"/>
        <param key="type" value="multipolygon"/>
    </poly>
    <poly id="103177634" type="natural" color="140,196,107" fill="0" layer="-4.00" shape="8395.06,2009.52 8402.68,2006.96">
        <param key="name" value="Wards Island Beach"/>
        <param key="natural" value="beach"/>
        <param key="source" value="Bing"/>
        <param key="type" value="multipolygon"/>
    </poly>
    <poly id="104254897" type="natural" color="140,196,107" fill="1" layer="-4.00" shape="5957.74,150.47 5949.32,132.77 5936.29,118.57 5934.85,114.94 5932.11,111.56 5928.46,108.56 5922.90,106.86 5904.39,86.52 5867.59,29.97 5833.46,3.42 5823.30,33.15 5821.68,32.97 5794.08,20.28 5758.18,2.95 5746.53,-1.57 5731.62,2.85 5712.65,4.73 5674.43,1.22 5658.16,-8.34 5639.42,-9.40 5612.53,-2.56 5580.16,-6.86 5558.34,-11.35 5546.62,-16.68 5537.93,-12.92 5528.22,-3.41 5541.90,-1.70 5545.38,0.00 5565.60,8.05 5608.17,19.43 5616.76,21.73 5685.00,44.16 5729.89,58.91 5846.16,103.23 5958.17,163.40 5971.23,167.55 5957.74,150.47">
        <param key="name" value="Manitou Beach"/>
        <param key="natural" value="beach"/>
    </poly>
    <poly id="104945731" type="building" color="255,230,230" fill="1" layer="-1.00" shape="4553.36,3365.42 4574.14,3313.74 4550.78,3304.41 4533.46,3347.50 4552.22,3355.00 4548.77,3363.59 4553.36,3365.42">
        <param key="building" value="yes"/>
        <param key="source" value="Bing"/>
    </poly>
    <poly id="104945927" type="building" color="255,230,230" fill="1" layer="-1.00" shape="4443.75,3298.50 4439.50,3296.88 4440.59,3293.15 4438.21,3292.59 4436.90,3298.02 4421.58,3291.52 4433.74,3260.54 4457.00,3268.71 4449.30,3295.02 4447.60,3294.31 4443.75,3298.50">
        <param key="building" value="yes"/>
        <param key="source" value="Bing"/>
    </poly>
    <poly id="104945944" type="building" color="255,230,230" fill="1" layer="-1.00" shape="4497.12,3325.69 4500.43,3315.25 4492.04,3312.61 4491.63,3313.89 4485.10,3311.84 4482.74,3319.31 4489.80,3321.52 4489.26,3323.22 4497.12,3325.69">
        <param key="building" value="yes"/>
        <param key="source" value="Bing"/>
    </poly>
    <poly id="104945946" type="building" color="255,230,230" fill="1" layer="-1.00" shape="4493.21,3336.68 4496.52,3326.23 4488.13,3323.59 4487.72,3324.88 4481.20,3322.82 4478.83,3330.28 4485.88,3332.51 4485.35,3334.21 4493.21,3336.68">
        <param key="building" value="yes"/>
        <param key="source" value="Bing"/>
    </poly>
    <poly id="104945947" type="building" color="255,230,230" fill="1" layer="-1.00" shape="4507.48,3337.90 4516.41,3341.23 4517.03,3339.60 4522.94,3341.80 4525.67,3334.54 4519.91,3332.39 4520.44,3330.99 4511.35,3327.59 4507.48,3337.90">
        <param key="building" value="yes"/>
        <param key="source" value="Bing"/>
    </poly>
    <poly id="104945948" type="building" color="255,230,230" fill="1" layer="-1.00" shape="4514.91,3314.96 4523.85,3318.30 4524.46,3316.67 4530.37,3318.87 4533.10,3311.60 4527.34,3309.46 4527.88,3308.04 4518.79,3304.66 4514.91,3314.96">
        <param key="building" value="yes"/>
        <param key="source" value="Bing"/>
    </poly>
    <poly id="104945949" type="building" color="255,230,230" fill="1" layer="-1.00" shape="4518.64,3303.60 4527.84,3307.20 4528.29,3306.04 4532.39,3307.64 4535.38,3300.04 4531.05,3298.35 4531.63,3296.86 4522.67,3293.36 4518.64,3303.60">
        <param key="building" value="yes"/>
        <param key="source" value="Bing"/>
    </poly>
    <poly id="104945951" type="building" color="255,230,230" fill="1" layer="-1.00" shape="4511.26,3326.37 4520.20,3329.71 4520.82,3328.06 4526.73,3330.28 4529.46,3323.01 4523.70,3320.85 4524.23,3319.45 4515.14,3316.05 4511.26,3326.37">
        <param key="building" value="yes"/>
        <param key="source" value="Bing"/>
    </poly>
    <poly id="104945954" type="building" color="255,230,230" fill="1" layer="-1.00" shape="4501.35,3313.92 4504.66,3303.47 4496.26,3300.83 4495.86,3302.12 4489.33,3300.07 4486.97,3307.53 4494.03,3309.75 4493.49,3311.46 4501.35,3313.92">
        <param key="building" value="yes"/>
        <param key="source" value="Bing"/>
    </poly>
    <poly id="104945956" type="building" color="255,230,230" fill="1" layer="-1.00" shape="4507.45,3303.73 4509.62,3297.08 4499.93,3293.93 4502.74,3285.35 4487.93,3280.54 4482.94,3295.77 4507.45,3303.73">
        <param key="building" value="yes"/>
        <param key="source" value="Bing"/>
    </poly>
    <poly id="106664835" type="building" color="255,230,230" fill="1" layer="-1.00" shape="4997.09,3448.35 4992.98,3446.30 4992.89,3445.06 4994.50,3444.44 4992.14,3440.61 4990.76,3441.00 4990.98,3435.97 4993.28,3430.70 4997.53,3425.88 4995.86,3423.23 4999.53,3420.29 5003.90,3417.81 5006.11,3416.72 5009.82,3415.83 5015.29,3414.76 5018.17,3403.02 5020.45,3403.93 5021.33,3400.80 5028.92,3403.59 5027.75,3406.21 5034.33,3408.47 5027.62,3428.66 5025.69,3433.22 5023.98,3435.49 5021.30,3438.90 5022.87,3440.86 5019.92,3443.28 5016.08,3445.45 5012.07,3447.15 5007.42,3448.41 5002.15,3449.07 4997.09,3448.35">
        <param key="building" value="apartments"/>
        <param key="building:levels" value="32"/>
        <param key="name" value="Matrix East"/>
        <param key="source" value="Bing"/>
    </poly>
    <poly id="106664838" type="building" color="255,230,230" fill="1" layer="-1.00" shape="4958.20,3432.48 4955.53,3430.19 4952.23,3427.19 4950.02,3424.30 4947.83,3420.42 4945.44,3413.44 4947.81,3412.73 4947.23,3407.86 4945.39,3407.32 4946.21,3404.33 4947.89,3399.35 4949.89,3396.12 4953.03,3385.65 4955.04,3386.02 4957.13,3378.06 4969.29,3382.04 4969.11,3382.76 4973.01,3383.74 4968.22,3399.41 4971.25,3402.64 4973.97,3406.30 4975.85,3410.06 4977.78,3415.01 4974.69,3415.59 4975.05,3422.86 4974.36,3428.30 4973.13,3430.64 4971.35,3431.91 4970.98,3431.19 4966.96,3432.91 4967.06,3434.33 4963.91,3434.60 4960.28,3433.61 4958.20,3432.48">
        <param key="building" value="apartments"/>
        <param key="building:levels" value="28"/>
        <param key="name" value="Matrix West"/>
        <param key="source" value="Bing"/>
    </poly>
    <poly id="108058906" type="building" color="255,230,230" fill="1" layer="-1.00" shape="6367.59,3942.84 6380.82,3952.16 6363.66,4005.14 6349.67,3995.97 6349.92,3995.24 6367.59,3942.84">
        <param key="addr:city" value="Toronto"/>
        <param key="addr:country" value="CA"/>
        <param key="addr:housenumber" value="41-43"/>
        <param key="addr:province" value="ON"/>
        <param key="addr:street" value="Front Street East"/>
        <param key="building" value="commercial"/>
    </poly>
    <poly id="108058907" type="building" color="255,230,230" fill="1" layer="-1.00" shape="6349.92,3995.24 6328.17,3980.59 6329.52,3976.76 6332.82,3967.07 6346.64,3928.25 6367.59,3942.84 6349.92,3995.24">
        <param key="addr:city" value="Toronto"/>
        <param key="addr:country" value="CA"/>
        <param key="addr:housenumber" value="35-39"/>
        <param key="addr:province" value="ON"/>
        <param key="addr:street" value="Front Street East"/>
        <param key="building" value="commercial"/>
        <param key="historic" value="building"/>
        <param key="name" value="Beardmore Building"/>
        <param key="note" value="Designated under Part IV - Ontario Heritage Act"/>
        <param key="source" value="yahoo"/>
    </poly>
    <poly id="108058907#1" type="historic" color="128,255,128" fill="1" layer="-1.00" shape="6349.92,3995.24 6328.17,3980.59 6329.52,3976.76 6332.82,3967.07 6346.64,3928.25 6367.59,3942.84 6349.92,3995.24">
        <param key="addr:city" value="Toronto"/>
        <param key="addr:country" value="CA"/>
        <param key="addr:housenumber" value="35-39"/>
        <param key="addr:province" value="ON"/>
        <param key="addr:street" value="Front Street East"/>
        <param key="building" value="commercial"/>
        <param key="historic" value="building"/>
        <param key="name" value="Beardmore Building"/>
        <param key="note" value="Designated under Part IV - Ontario Heritage Act"/>
        <param key="source" value="yahoo"/>
    </poly>
    <poly id="108058909" type="building" color="255,230,230" fill="1" layer="-1.00" shape="6370.54,4009.78 6387.75,3956.66 6380.82,3952.16 6363.66,4005.14 6370.54,4009.78">
        <param key="building" value="commercial"/>
    </poly>
    <poly id="111057248" type="building" color="255,230,230" fill="1" layer="-1.00" shape="4417.68,2027.94 4407.08,2019.59 4405.94,2009.92 4407.78,2009.62 4412.15,2003.73 4419.02,2003.20 4423.52,2007.04 4426.49,2006.92 4429.87,2009.23 4430.17,2012.28 4417.68,2027.94">
        <param key="area" value="yes"/>
        <param key="man_made" value="tower"/>
        <param key="source" value="Bing"/>
        <param key="tower:type" value="aircraft_control"/>
    </poly>
    <poly id="111779926" type="building" color="255,230,230" fill="1" layer="-1.00" shape="6573.92,4042.57 6572.29,4047.39 6570.21,4053.49 6551.03,4047.02 6554.74,4036.11 6573.92,4042.57">
        <param key="building" value="yes"/>
        <param key="building:levels" value="5"/>
        <param key="source" value="Bing"/>
    </poly>
    <poly id="111779927" type="building" color="255,230,230" fill="1" layer="-1.00" shape="6461.71,4070.34 6459.75,4071.37 6444.52,4062.48 6434.31,4054.96 6456.20,3987.78 6484.85,3996.74 6461.71,4070.34">
        <param key="building" value="yes"/>
        <param key="historic" value="building"/>
        <param key="note" value="Designated under Part IV - Ontario Heritage Act"/>
        <param key="source" value="Bing"/>
    </poly>
    <poly id="111779927#1" type="historic" color="128,255,128" fill="1" layer="-1.00" shape="6461.71,4070.34 6459.75,4071.37 6444.52,4062.48 6434.31,4054.96 6456.20,3987.78 6484.85,3996.74 6461.71,4070.34">
        <param key="building" value="yes"/>
        <param key="historic" value="building"/>
        <param key="note" value="Designated under Part IV - Ontario Heritage Act"/>
        <param key="source" value="Bing"/>
    </poly>
    <poly id="112644337" type="parking" color="184,184,179" fill="1" layer="-1.00" shape="3649.49,2768.90 3649.95,2763.13 3642.08,2762.51 3643.12,2749.44 3700.56,2753.96 3699.07,2772.79 3649.49,2768.90">
        <param key="amenity" value="parking"/>
        <param key="parking" value="surface"/>
        <param key="source" value="Bing"/>
    </poly>
    <poly id="112644340" type="building" color="255,230,230" fill="1" layer="-1.00" shape="3436.84,2675.27 3468.26,2665.17 3473.48,2681.26 3445.04,2690.41 3444.11,2687.55 3441.13,2688.51 3436.84,2675.27">
        <param key="building" value="yes"/>
        <param key="building:levels" value="2"/>
        <param key="source" value="Bing"/>
    </poly>
    <poly id="112644341" type="parking" color="184,184,179" fill="1" layer="-1.00" shape="3882.06,2848.49 3933.26,2855.41 3912.10,2899.02 3869.02,2879.49 3882.06,2848.49">
        <param key="amenity" value="parking"/>
        <param key="parking" value="surface"/>
        <param key="source" value="Bing"/>
    </poly>
    <poly id="112644578" type="landuse" color="194,194,130" fill="1" layer="-3.00" shape="3444.26,2972.80 3367.74,2950.36 3394.42,2861.28 3470.49,2888.04 3444.26,2972.80">
        <param key="landuse" value="brownfield"/>
        <param key="name" value="Liberty Central by the Lake"/>
        <param key="note" value="Sales centre shown in Bing has now been demolished"/>
    </poly>
    <poly id="112644596" type="building" color="255,230,230" fill="1" layer="-1.00" shape="4142.73,3220.99 4169.28,3228.69 4170.16,3225.67 4167.97,3225.03 4168.57,3222.97 4174.04,3224.56 4178.33,3209.85 4154.36,3202.89 4150.25,3216.95 4144.41,3215.26 4142.73,3220.99">
        <param key="building" value="yes"/>
        <param key="source" value="Bing"/>
    </poly>
    <poly id="112645717" type="building" color="255,230,230" fill="1" layer="-1.00" shape="3976.43,3081.09 3964.42,3077.32 3965.86,3072.73 3977.89,3076.49 3976.43,3081.09">
        <param key="building" value="yes"/>
        <param key="source" value="Bing"/>
    </poly>
    <poly id="112649278" type="building" color="255,230,230" fill="1" layer="-1.00" shape="4075.99,3200.12 4128.96,3217.14 4132.03,3207.64 4130.23,3207.06 4133.03,3198.42 4079.64,3181.26 4078.45,3184.91 4080.67,3185.62 4075.99,3200.12">
        <param key="building" value="yes"/>
        <param key="source" value="Bing"/>
    </poly>
    <poly id="112652188" type="building" color="255,230,230" fill="1" layer="-1.00" shape="4354.82,2665.89 4350.05,2651.30 4357.84,2648.77 4362.62,2663.36 4354.82,2665.89">
        <param key="building" value="roof"/>
        <param key="building:levels" value="1"/>
        <param key="source" value="Bing"/>
    </poly>
    <poly id="112652189" type="amenity" color="237,199,199" fill="1" layer="-1.00" shape="4470.25,2437.12 4459.18,2433.33 4461.45,2426.73 4459.95,2426.21 4461.17,2422.70 4462.54,2418.70 4464.09,2419.23 4466.35,2412.68 4477.35,2416.45 4475.14,2422.87 4476.84,2423.46 4475.47,2427.42 4474.02,2431.63 4472.34,2431.05 4470.25,2437.12">
        <param key="amenity" value="toilets"/>
        <param key="building" value="yes"/>
        <param key="source" value="Bing"/>
    </poly>
    <poly id="112652189#1" type="building" color="255,230,230" fill="1" layer="-1.00" shape="4470.25,2437.12 4459.18,2433.33 4461.45,2426.73 4459.95,2426.21 4461.17,2422.70 4462.54,2418.70 4464.09,2419.23 4466.35,2412.68 4477.35,2416.45 4475.14,2422.87 4476.84,2423.46 4475.47,2427.42 4474.02,2431.63 4472.34,2431.05 4470.25,2437.12">
        <param key="amenity" value="toilets"/>
        <param key="building" value="yes"/>
        <param key="source" value="Bing"/>
    </poly>
    <poly id="112652192" type="parking" color="184,184,179" fill="1" layer="-1.00" shape="4473.76,2727.78 4465.51,2723.62 4476.27,2699.94 4454.03,2689.11 4452.50,2678.06 4436.23,2653.00 4466.87,2629.89 4472.55,2630.63 4525.80,2689.48 4530.14,2693.74 4481.48,2716.58 4478.10,2719.67 4473.76,2727.78">
        <param key="access" value="private"/>
        <param key="amenity" value="parking"/>
        <param key="capacity:disabled" value="3"/>
        <param key="note" value="authorized parking"/>
        <param key="parking" value="surface"/>
        <param key="source" value="Bing,survey"/>
        <param key="surface" value="asphalt"/>
    </poly>
    <poly id="112652323" type="building" color="255,230,230" fill="1" layer="-1.00" shape="3929.57,2995.19 3918.93,2986.65 3922.90,2981.73 3933.55,2990.29 3929.57,2995.19">
        <param key="building" value="yes"/>
        <param key="source" value="Bing"/>
    </poly>
    <poly id="112652324" type="building" color="255,230,230" fill="1" layer="-1.00" shape="3969.38,2960.51 3984.82,2932.81 3991.16,2936.33 3975.71,2964.02 3969.38,2960.51">
        <param key="building" value="yes"/>
        <param key="source" value="Bing"/>
    </poly>
    <poly id="112652325" type="building" color="255,230,230" fill="1" layer="-1.00" shape="3955.74,2991.66 3940.22,2968.48 3948.03,2963.29 3963.53,2986.48 3955.74,2991.66">
        <param key="building" value="yes"/>
        <param key="source" value="Bing"/>
    </poly>
    <poly id="112652326" type="building" color="255,230,230" fill="1" layer="-1.00" shape="3987.99,2927.24 4003.28,2900.39 4009.67,2904.01 3994.38,2930.85 3987.99,2927.24">
        <param key="building" value="yes"/>
        <param key="source" value="Bing"/>
    </poly>
    <poly id="112652365" type="building" color="255,230,230" fill="1" layer="-1.00" shape="4975.73,3106.74 5006.54,3117.13 5009.44,3108.59 5004.73,3107.00 5004.14,3108.74 5001.10,3107.71 5001.57,3106.31 4996.82,3104.71 4996.31,3106.22 4993.12,3105.14 4993.62,3103.68 4989.31,3102.22 4988.82,3103.64 4985.26,3102.44 4985.82,3100.80 4981.68,3099.41 4981.15,3100.97 4978.05,3099.92 4975.73,3106.74">
        <param key="building" value="yes"/>
        <param key="source" value="Bing"/>
    </poly>
    <poly id="112652539" type="leisure" color="207,245,201" fill="1" layer="-2.00" shape="4994.19,3043.18 5027.04,3054.22 5032.14,3039.14 4999.30,3028.09 4994.19,3043.18">
        <param key="courts" value="1"/>
        <param key="leisure" value="pitch"/>
        <param key="source" value="Bing"/>
        <param key="sport" value="tennis"/>
    </poly>
    <poly id="112652539#1" type="sport" color="79,230,125" fill="1" layer="-2.00" shape="4994.19,3043.18 5027.04,3054.22 5032.14,3039.14 4999.30,3028.09 4994.19,3043.18">
        <param key="courts" value="1"/>
        <param key="leisure" value="pitch"/>
        <param key="source" value="Bing"/>
        <param key="sport" value="tennis"/>
    </poly>
    <poly id="112653295" type="building" color="255,230,230" fill="1" layer="-1.00" shape="4556.46,2671.87 4532.11,2643.23 4539.83,2632.36 4564.09,2594.03 4557.45,2589.37 4558.09,2587.42 4552.05,2583.17 4558.61,2570.49 4596.36,2594.34 4595.28,2595.61 4603.28,2600.89 4593.11,2616.06 4591.55,2614.65 4589.92,2617.17 4592.08,2618.20 4571.19,2666.30 4569.62,2665.82 4565.71,2673.62 4557.08,2670.30 4556.46,2671.87">
        <param key="building" value="school"/>
        <param key="source" value="Bing"/>
        <param key="type" value="multipolygon"/>
    </poly>
    <poly id="112653296" type="building" color="255,230,230" fill="1" layer="-1.00" shape="4550.97,2649.12 4553.29,2651.92 4561.51,2655.82 4566.28,2644.29 4557.29,2638.80 4550.97,2649.12">
        <param key="building" value="school"/>
        <param key="source" value="Bing"/>
        <param key="type" value="multipolygon"/>
    </poly>
    <poly id="112653516" type="building" color="255,230,230" fill="1" layer="-1.00" shape="3792.07,3066.45 3804.87,3067.62 3805.51,3060.75 3792.70,3059.58 3792.07,3066.45">
        <param key="building" value="yes"/>
        <param key="source" value="Bing"/>
    </poly>
    <poly id="112653519" type="building" color="255,230,230" fill="1" layer="-1.00" shape="3807.93,3065.86 3816.72,3066.60 3817.16,3061.46 3808.37,3060.72 3807.93,3065.86">
        <param key="building" value="yes"/>
        <param key="source" value="Bing"/>
    </poly>
    <poly id="112653988" type="building" color="255,230,230" fill="1" layer="-1.00" shape="4651.17,2773.88 4658.90,2777.51 4658.14,2779.53 4658.58,2781.81 4661.06,2783.89 4663.70,2784.18 4666.22,2784.23 4670.74,2773.90 4668.72,2772.91 4669.97,2770.42 4658.42,2765.41 4657.05,2767.66 4654.80,2766.42 4651.17,2773.88">
        <param key="building" value="yes"/>
        <param key="source" value="Bing"/>
    </poly>
    <poly id="112654369" type="building" color="255,230,230" fill="1" layer="-1.00" shape="3354.40,2867.68 3378.67,2874.46 3384.13,2858.44 3367.34,2853.21 3358.41,2854.21 3354.40,2867.68">
        <param key="building" value="yes"/>
        <param key="source" value="Bing"/>
    </poly>
    <poly id="112654572" type="parking" color="184,184,179" fill="1" layer="-1.00" shape="4141.68,3221.99 4131.41,3218.95 4136.77,3201.04 4147.04,3204.09 4141.68,3221.99">
        <param key="amenity" value="parking"/>
        <param key="parking" value="surface"/>
        <param key="source" value="Bing"/>
    </poly>
    <poly id="112766433" type="building" color="255,230,230" fill="1" layer="-1.00" shape="6363.05,3696.32 6365.90,3687.19 6384.16,3692.86 6381.30,3702.00 6363.05,3696.32">
        <param key="building" value="yes"/>
        <param key="source" value="Bing"/>
    </poly>
    <poly id="115565261" type="building" color="255,230,230" fill="1" layer="-1.00" shape="3988.10,3012.77 3987.11,3006.31 4007.03,3003.28 4008.01,3009.74 3988.10,3012.77">
        <param key="building" value="yes"/>
        <param key="source" value="Bing"/>
    </poly>
    <poly id="115684787" type="building" color="255,230,230" fill="0" layer="-1.00" shape="5208.08,2825.92 5220.43,2829.75">
        <param key="access" value="private"/>
        <param key="man_made" value="pier"/>
        <param key="source" value="Bing"/>
    </poly>
    <poly id="115684797" type="building" color="255,230,230" fill="0" layer="-1.00" shape="5208.08,2825.92 5218.30,2790.79">
        <param key="access" value="private"/>
        <param key="man_made" value="pier"/>
        <param key="source" value="Bing"/>
    </poly>
    <poly id="115684884" type="building" color="255,230,230" fill="1" layer="-1.00" shape="5204.77,2833.52 5205.52,2828.01 5210.63,2829.63 5208.21,2834.63 5204.77,2833.52">
        <param key="building" value="yes"/>
        <param key="source" value="Bing;survey"/>
    </poly>
    <poly id="115685437" type="building" color="255,230,230" fill="1" layer="-1.00" shape="5101.47,2836.07 5095.31,2834.26 5089.31,2832.50 5091.20,2826.14 5103.35,2829.71 5101.47,2836.07">
        <param key="building" value="yes"/>
        <param key="source" value="Bing;survey"/>
    </poly>
    <poly id="115685639" type="tourism" color="207,245,201" fill="1" layer="-2.00" shape="4671.18,3066.97 4596.63,3052.10 4555.34,3034.54 4501.61,3006.24 4543.90,2878.51 4676.77,2910.58 4709.59,2932.43 4717.45,2935.73 4671.18,3066.97">
        <param key="addr:city" value="Toronto"/>
        <param key="addr:country" value="CA"/>
        <param key="addr:housenumber" value="95"/>
        <param key="addr:province" value="ON"/>
        <param key="addr:street" value="Fort York Boulevard"/>
        <param key="leisure" value="park"/>
        <param key="name" value="Canoe Landing Park"/>
        <param key="opendata:type" value="106001"/>
        <param key="source" value="Bing"/>
        <param key="wikipedia" value="en:Canoe Landing Park"/>
    </poly>
    <poly id="115685710" type="building" color="255,230,230" fill="1" layer="-1.00" shape="4565.25,3149.86 4571.71,3129.15 4573.83,3122.35 4602.10,3131.12 4599.35,3139.86 4620.82,3146.07 4629.98,3116.81 4580.73,3100.86 4589.11,3080.07 4639.11,3094.86 4659.00,3101.03 4648.47,3134.77 4639.92,3162.17 4633.97,3160.32 4630.12,3172.65 4593.46,3158.61 4565.25,3149.86">
        <param key="building" value="yes"/>
        <param key="building:levels" value="9"/>
        <param key="building:min_level" value="3"/>
        <param key="height" value="28"/>
        <param key="min_height" value="6.2"/>
        <param key="name" value="Parade"/>
        <param key="source" value="Bing"/>
    </poly>
    <poly id="115685712" type="building" color="255,230,230" fill="1" layer="-1.00" shape="4501.00,2920.29 4511.53,2893.18 4487.88,2889.88 4443.65,2888.46 4426.74,2891.11 4415.65,2926.05 4475.71,2906.14 4475.28,2899.44 4487.05,2896.26 4483.96,2908.43 4473.13,2936.69 4496.20,2947.09 4501.00,2920.29">
        <param key="building" value="yes"/>
        <param key="building:levels" value="42"/>
        <param key="name" value="Quartz"/>
    </poly>
    <poly id="115685713" type="building" color="255,230,230" fill="1" layer="-1.00" shape="4663.36,3185.32 4686.02,3191.78 4686.22,3191.08 4693.61,3193.58 4696.47,3185.25 4699.04,3177.83 4697.20,3177.40 4700.17,3166.91 4698.53,3166.68 4698.36,3165.24 4696.75,3165.62 4693.41,3165.97 4689.54,3166.42 4685.89,3166.35 4682.66,3166.08 4679.12,3165.59 4675.08,3164.16 4672.70,3162.86 4669.24,3161.14 4664.13,3176.91 4665.70,3177.73 4663.36,3185.32">
        <param key="building" value="apartments"/>
        <param key="building:levels" value="38"/>
        <param key="name" value="Luna Vista"/>
        <param key="source" value="Bing"/>
    </poly>
    <poly id="115685714" type="building" color="255,230,230" fill="1" layer="-1.00" shape="4477.13,3116.46 4516.91,3128.30 4518.52,3130.54 4520.60,3132.58 4522.83,3134.15 4525.55,3135.42 4528.31,3136.17 4531.17,3136.44 4534.24,3136.19 4536.81,3135.54 4539.31,3134.44 4541.81,3132.80 4543.92,3130.81 4545.69,3128.42 4546.97,3125.85 4547.74,3123.35 4555.21,3092.68 4557.24,3092.90 4559.87,3072.68 4526.42,3059.85 4493.73,3043.60 4491.81,3049.45 4485.62,3069.93 4475.57,3101.06 4480.83,3102.83 4477.13,3116.46">
        <param key="building" value="yes"/>
        <param key="building:levels" value="8"/>
        <param key="height" value="28"/>
        <param key="min_height" value="0"/>
        <param key="name" value="Parade"/>
    </poly>
    <poly id="115687416" type="landuse" color="194,194,130" fill="1" layer="-3.00" shape="4717.45,2935.73 4804.31,2964.77 4797.59,2990.38 4800.26,3004.08 4770.24,3095.63 4725.22,3078.62 4671.18,3066.97 4717.45,2935.73">
        <param key="barrier" value="fence"/>
        <param key="landuse" value="brownfield"/>
        <param key="name" value="Block 31 - Future Schools and Community Centre"/>
        <param key="note" value="Future Catholic and public schools and community centre. Est. completion: 2018"/>
        <param key="source" value="Bing"/>
    </poly>
    <poly id="11879840" type="water" color="181,209,209" fill="1" layer="-4.00" shape="5595.76,888.43 5581.62,896.60 5562.67,898.34 5549.76,895.98 5532.70,887.67 5522.83,878.32 5519.32,866.06 5516.38,859.67 5517.31,846.54 5521.64,843.35 5524.31,828.61 5529.77,820.04 5546.81,810.98 5561.45,805.06 5570.34,807.45 5575.79,811.00 5582.19,815.98 5590.28,822.94 5596.10,823.92 5600.35,828.10 5605.13,832.72 5608.20,836.44 5612.73,837.07 5616.27,843.05 5621.25,844.60 5627.05,846.15 5630.49,848.93 5631.32,857.36 5625.37,860.39 5619.16,859.05 5611.21,856.34 5605.06,861.36 5599.55,878.07 5597.05,882.31 5595.76,888.43">
        <param key="ele" value="75"/>
        <param key="name" value="Lake Ontario"/>
        <param key="name:be" value="Возера Антарыа"/>
        <param key="name:cs" value="Ontarijské jezero"/>
        <param key="name:de" value="Ontariosee"/>
        <param key="name:es" value="Lago Ontario"/>
        <param key="name:fr" value="Lac Ontario"/>
        <param key="name:hu" value="Ontarió-tó"/>
        <param key="name:pl" value="Jezioro Ontario"/>
        <param key="natural" value="water"/>
        <param key="note" value="If editing please make sure outer is intact and all islands are inner"/>
        <param key="place" value="islet"/>
        <param key="salt" value="no"/>
        <param key="source" value="Mapillary"/>
        <param key="sqkm" value="19011"/>
        <param key="type" value="multipolygon"/>
        <param key="water" value="lake"/>
        <param key="wikidata" value="Q1062"/>
        <param key="wikipedia" value="en:Lake Ontario"/>
    </poly>
    <poly id="11879841" type="water" color="181,209,209" fill="1" layer="-4.00" shape="5535.22,837.51 5534.83,851.03 5535.80,857.25 5533.67,863.92 5533.69,869.27 5535.07,874.77 5538.76,878.81 5544.34,884.28 5549.71,888.06 5555.36,889.56 5562.54,887.28 5569.11,882.98 5570.36,879.54 5571.94,875.09 5581.64,869.61 5586.26,868.30 5588.91,863.89 5590.71,858.77 5590.32,852.66 5592.09,849.41 5590.59,847.73 5588.72,847.23 5577.12,830.12 5571.10,824.13 5565.68,822.15 5559.37,822.73 5552.71,823.06 5548.07,824.85 5540.61,831.98 5535.22,837.51">
        <param key="created_by" value="Potlatch 0.10f"/>
        <param key="natural" value="water"/>
        <param key="source" value="Yahoo"/>
    </poly>
    <poly id="120238786" type="tourism" color="207,245,201" fill="1" layer="-2.00" shape="6713.71,1208.96 6669.74,1186.65 6666.46,1173.10 6669.15,1157.40 6667.41,1146.36 6661.90,1140.43 6659.63,1134.78 6659.74,1129.17 6658.31,1124.61 6652.99,1120.40 6646.20,1115.75 6644.99,1113.16 6643.86,1110.74 6643.75,1105.99 6652.29,1099.05 6657.10,1095.74 6690.73,1082.20 6698.82,1087.43 6717.34,1166.81 6713.71,1208.96">
        <param key="note" value="sailing school/summer camp"/>
        <param key="tourism" value="camp_site"/>
    </poly>