<?xml version="1.0"?>
<!-- generated on 2017-10-31 11:34:56.294669 by $Id$
  options: config/toronto.net.xml
-->
<routes xmlns:xsi="http://www.w3.org/2001/XMLSchema-instance" xsi:noNamespaceSchemaLocation="http://sumo.dlr.de/xsd/routes_file.xsd">
    <vType id="passenger" vClass="passenger" speedFactor="normc(1.00,0.10,0.20,2.00)"/>
    <trip id="veh0" depart="0.00" from="98243453#1" to="253255498#1" type="passenger"/>
    <trip id="veh1" depart="2.00" from="30759017" to="123992173" type="passenger"/>
    <trip id="veh2" depart="4.00" from="75838577#0" to="427501183" type="passenger"/>
    <trip id="veh3" depart="6.00" from="24382202" to="-494886774" type="passenger"/>
    <trip id="veh4" depart="8.00" from="329385931" to="310728722#0" type="passenger"/>
    <trip id="veh5" depart="10.00" from="-193043054#3" to="31779987#0" type="passenger"/>
    <trip id="veh6" depart="12.00" from="253257351#0" to="-23473100#1" type="passenger"/>
    <trip id="veh7" depart="14.00" from="-76536407#3" to="24221148#4" type="passenger"/>
    <trip id="veh8" depart="16.00" from="286809515#2" to="-310728722#2" type="passenger"/>
    <trip id="veh9" depart="18.00" from="253257582#1" to="19882353" type="passenger"/>
    <trip id="veh10" depart="20.00" from="-327522511#0" to="-403367818#1" type="passenger"/>
    <trip id="veh11" depart="22.00" from="403367818#0" to="244751317#0" type="passenger"/>
    <trip id="veh12" depart="24.00" from="23143677#2" to="334951829#2" type="passenger"/>
    <trip id="veh13" depart="26.00" from="-189146659#0" to="118774002#4" type="passenger"/>
    <trip id="veh14" depart="28.00" from="25823146#2" to="123991331#0" type="passenger"/>
    <trip id="veh15" depart="30.00" from="324035620#0" to="19882350#1" type="passenger"/>
    <trip id="veh16" depart="32.00" from="253255126" to="253257582#1" type="passenger"/>
    <trip id="veh17" depart="34.00" from="-13538428#0" to="-112644339#0" type="passenger"/>
    <trip id="veh18" depart="36.00" from="26171446#1" to="23209221#4" type="passenger"/>
    <trip id="veh19" depart="38.00" from="98243535" to="127701141" type="passenger"/>
    <trip id="veh20" depart="40.00" from="-4005303#0" to="14743546#6" type="passenger"/>
    <trip id="veh21" depart="42.00" from="14746315#9" to="4988202#7" type="passenger"/>
    <trip id="veh22" depart="44.00" from="-13541126" to="-24382120#3" type="passenger"/>
    <trip id="veh23" depart="46.00" from="21670319#0" to="-13538414" type="passenger"/>
    <trip id="veh24" depart="48.00" from="22689358" to="151178680" type="passenger"/>
    <trip id="veh25" depart="50.00" from="98243454" to="123991331#1" type="passenger"/>
    <trip id="veh26" depart="52.00" from="24603868#1" to="23473100#1" type="passenger"/>
    <trip id="veh27" depart="54.00" from="26697083#0" to="-23502703#0" type="passenger"/>
    <trip id="veh28" depart="56.00" from="253257582#1" to="-76699170#4" type="passenger"/>
    <trip id="veh29" depart="58.00" from="-24382120#4" to="41789175" type="passenger"/>
    <trip id="veh30" depart="60.00" from="162582242#0" to="24382162#2" type="passenger"/>
    <trip id="veh31" depart="62.00" from="-271664959#3" to="123992173" type="passenger"/>
    <trip id="veh32" depart="64.00" from="36924903" to="-222183037#0" type="passenger"/>
    <trip id="veh33" depart="66.00" from="39162399" to="261803393#2" type="passenger"/>
    <trip id="veh34" depart="68.00" from="14743919#3" to="41789174#0" type="passenger"/>
    <trip id="veh35" depart="70.00" from="445664696" to="141001277#1" type="passenger"/>
    <trip id="veh36" depart="72.00" from="-33111443" to="50886985#6" type="passenger"/>
    <trip id="veh37" depart="74.00" from="31733044#0" to="222183027" type="passenger"/>
    <trip id="veh38" depart="76.00" from="19881842" to="24382202" type="passenger"/>
    <trip id="veh39" depart="78.00" from="-28614656#0" to="123992173" type="passenger"/>
    <trip id="veh40" depart="80.00" from="-22635253#2" to="98243453#0" type="passenger"/>
    <trip id="veh41" depart="82.00" from="4018705" to="-34857878#1" type="passenger"/>
    <trip id="veh42" depart="84.00" from="-219860805#0" to="-222183037#4" type="passenger"/>
    <trip id="veh43" depart="86.00" from="24382120#4" to="-76699170#2" type="passenger"/>
    <trip id="veh44" depart="88.00" from="222183027" to="34398517" type="passenger"/>
    <trip id="veh45" depart="90.00" from="98243453#1-AddedOffRampEdge" to="-14746490#3" type="passenger"/>
    <trip id="veh46" depart="92.00" from="22942636" to="24382202" type="passenger"/>
    <trip id="veh47" depart="94.00" from="19882595#1" to="31779987#2" type="passenger"/>
    <trip id="veh48" depart="96.00" from="253255132#1" to="300579849" type="passenger"/>
    <trip id="veh49" depart="98.00" from="286809510#1" to="31779987#0" type="passenger"/>
    <trip id="veh50" depart="100.00" from="14746315#13" to="218811816#3" type="passenger"/>
    <trip id="veh51" depart="102.00" from="50886938#0" to="-131355231#2" type="passenger"/>
    <trip id="veh52" depart="104.00" from="376735321" to="31779987#0" type="passenger"/>
    <trip id="veh53" depart="106.00" from="-4167752#6" to="14746315#7" type="passenger"/>
    <trip id="veh54" depart="108.00" from="98243535" to="4005309#3" type="passenger"/>
    <trip id="veh55" depart="110.00" from="33111441#0" to="-446774381" type="passenger"/>
    <trip id="veh56" depart="112.00" from="41112543#1" to="302105467#0" type="passenger"/>
    <trip id="veh57" depart="114.00" from="-31779987#0" to="-31779987#0" type="passenger"/>
    <trip id="veh58" depart="116.00" from="42332877" to="-22758431#0" type="passenger"/>
    <trip id="veh59" depart="118.00" from="141001279#2" to="123991331#1" type="passenger"/>
    <trip id="veh60" depart="120.00" from="253257859" to="123991331#1" type="passenger"/>
    <trip id="veh61" depart="122.00" from="24382119#1" to="42332872#1" type="passenger"/>
    <trip id="veh62" depart="124.00" from="22766229" to="4006129#0" type="passenger"/>
    <trip id="veh63" depart="126.00" from="-24382119#3" to="212507396" type="passenger"/>
    <trip id="veh64" depart="128.00" from="219059132#0" to="286809508#2" type="passenger"/>
    <trip id="veh65" depart="130.00" from="403367818#4" to="-222183037#17" type="passenger"/>
    <trip id="veh66" depart="132.00" from="-24603744#2" to="-44073339#1" type="passenger"/>
    <trip id="veh67" depart="134.00" from="30759017" to="23483898#1" type="passenger"/>
    <trip id="veh68" depart="136.00" from="29185834" to="-403367818#2" type="passenger"/>
    <trip id="veh69" depart="138.00" from="203963763#1" to="-23502703#0" type="passenger"/>
    <trip id="veh70" depart="140.00" from="219860803#0" to="342652996#1" type="passenger"/>
    <trip id="veh71" depart="142.00" from="218811817#2" to="-13540497#0" type="passenger"/>
    <trip id="veh72" depart="144.00" from="24039504#1" to="494886775" type="passenger"/>
    <trip id="veh73" depart="146.00" from="-407507555" to="127701141" type="passenger"/>
    <trip id="veh74" depart="148.00" from="23143677#3" to="24602238#1" type="passenger"/>
    <trip id="veh75" depart="150.00" from="216696534#1-AddedOffRampEdge" to="26171447" type="passenger"/>
    <trip id="veh76" depart="152.00" from="127701141" to="-24382162#2" type="passenger"/>
    <trip id="veh77" depart="154.00" from="253257355#0" to="216647780" type="passenger"/>
    <trip id="veh78" depart="156.00" from="4005317#1" to="-335458843#2" type="passenger"/>
    <trip id="veh79" depart="158.00" from="13540502#3" to="298236442" type="passenger"/>
    <trip id="veh80" depart="160.00" from="141001279#1" to="253257353" type="passenger"/>
    <trip id="veh81" depart="162.00" from="233810258" to="156532380#3" type="passenger"/>
    <trip id="veh82" depart="164.00" from="-36924904#0" to="-340533303#0" type="passenger"/>
    <trip id="veh83" depart="166.00" from="-22243872#1" to="23502702#2" type="passenger"/>
    <trip id="veh84" depart="168.00" from="98243454" to="123991331#0" type="passenger"/>
    <trip id="veh85" depart="170.00" from="14745927#4" to="-327522510#3" type="passenger"/>
    <trip id="veh86" depart="172.00" from="4167752#6" to="14746315#7" type="passenger"/>
    <trip id="veh87" depart="174.00" from="-25535043#0" to="48890615#0" type="passenger"/>
    <trip id="veh88" depart="176.00" from="189607534" to="14973829" type="passenger"/>
    <trip id="veh89" depart="178.00" from="98243453#1" to="25535043#1" type="passenger"/>
    <trip id="veh90" depart="180.00" from="4988202#8" to="4167752#8" type="passenger"/>
    <trip id="veh91" depart="182.00" from="141001277#1" to="253255126" type="passenger"/>
    <trip id="veh92" depart="184.00" from="-312133838" to="-236611341#3" type="passenger"/>
    <trip id="veh93" depart="186.00" from="4006127" to="297758559#1" type="passenger"/>
    <trip id="veh94" depart="188.00" from="253255130#1" to="28614359" type="passenger"/>
    <trip id="veh95" depart="190.00" from="98243453#0-AddedOffRampEdge" to="-219845318#3" type="passenger"/>
    <trip id="veh96" depart="192.00" from="-4005312#2" to="407507552#1" type="passenger"/>
    <trip id="veh97" depart="194.00" from="98243535" to="23502703#2" type="passenger"/>
    <trip id="veh98" depart="196.00" from="23960689" to="242082372#0" type="passenger"/>
    <trip id="veh99" depart="198.00" from="-8587906#5" to="24382202" type="passenger"/>
    <trip id="veh100" depart="200.00" from="115685629#4" to="-233810258" type="passenger"/>
    <trip id="veh101" depart="202.00" from="-24382120#3" to="352799162#1" type="passenger"/>
    <trip id="veh102" depart="204.00" from="352799162#5" to="-24382104#3" type="passenger"/>
    <trip id="veh103" depart="206.00" from="329385931" to="-24382104#3" type="passenger"/>
    <trip id="veh104" depart="208.00" from="271664520" to="-13540489#0" type="passenger"/>
    <trip id="veh105" depart="210.00" from="153813489#0" to="4006129#6" type="passenger"/>
    <trip id="veh106" depart="212.00" from="224315807#0" to="375687205#0" type="passenger"/>
    <trip id="veh107" depart="214.00" from="24382118" to="98243457#1" type="passenger"/>
    <trip id="veh108" depart="216.00" from="-115685632" to="22635253#1" type="passenger"/>
    <trip id="veh109" depart="218.00" from="-434921527#0" to="-310728722#1" type="passenger"/>
    <trip id="veh110" depart="220.00" from="219845960" to="4018705" type="passenger"/>
    <trip id="veh111" depart="222.00" from="-23502703#0" to="-14743298#4" type="passenger"/>
    <trip id="veh112" depart="224.00" from="-24159283#4" to="-23209221#6" type="passenger"/>
    <trip id="veh113" depart="226.00" from="59259509" to="4006127" type="passenger"/>
    <trip id="veh114" depart="228.00" from="133669149#3" to="98243453#0" type="passenger"/>
    <trip id="veh115" depart="230.00" from="-494886775" to="278430754" type="passenger"/>
    <trip id="veh116" depart="232.00" from="219860820#0" to="-36924899" type="passenger"/>
    <trip id="veh117" depart="234.00" from="-31779987#0" to="33111441#0" type="passenger"/>
    <trip id="veh118" depart="236.00" from="-24382119#3" to="302122272#0" type="passenger"/>
    <trip id="veh119" depart="238.00" from="19881842" to="-494886763#0" type="passenger"/>
    <trip id="veh120" depart="240.00" from="-14746490#11" to="503004021#8" type="passenger"/>
    <trip id="veh121" depart="242.00" from="503003069#0" to="14746315#6" type="passenger"/>
    <trip id="veh122" depart="244.00" from="-335458843#2" to="34398520" type="passenger"/>
    <trip id="veh123" depart="246.00" from="-403367818#2" to="40542309#1" type="passenger"/>
    <trip id="veh124" depart="248.00" from="22766229" to="98243453#0" type="passenger"/>
    <trip id="veh125" depart="250.00" from="98243453#1" to="-253257351#1" type="passenger"/>
    <trip id="veh126" depart="252.00" from="98243453#1-AddedOffRampEdge" to="-24221154#2" type="passenger"/>
    <trip id="veh127" depart="254.00" from="23502703#2" to="19881842" type="passenger"/>
    <trip id="veh128" depart="256.00" from="98243452" to="41789165#1" type="passenger"/>
    <trip id="veh129" depart="258.00" from="123991331#0" to="494886774" type="passenger"/>
    <trip id="veh130" depart="260.00" from="121948129#1" to="-286809516#1" type="passenger"/>
    <trip id="veh131" depart="262.00" from="19881825#0" to="24382118" type="passenger"/>
    <trip id="veh132" depart="264.00" from="-23502703#4" to="98243457#0" type="passenger"/>
    <trip id="veh133" depart="266.00" from="98243457#1" to="98243453#0-AddedOffRampEdge" type="passenger"/>
    <trip id="veh134" depart="268.00" from="22952575#1" to="123991331#1" type="passenger"/>
    <trip id="veh135" depart="270.00" from="41362978#2" to="222151428#1" type="passenger"/>
    <trip id="veh136" depart="272.00" from="-407215251#1" to="25535043#0" type="passenger"/>
    <trip id="veh137" depart="274.00" from="30679731" to="22689358" type="passenger"/>
    <trip id="veh138" depart="276.00" from="26697083#0" to="133669149#12" type="passenger"/>
    <trip id="veh139" depart="278.00" from="442959893" to="-14746490#1" type="passenger"/>
    <trip id="veh140" depart="280.00" from="-335458842#5" to="248061547" type="passenger"/>
    <trip id="veh141" depart="282.00" from="13541122#1" to="123991331#1" type="passenger"/>
    <trip id="veh142" depart="284.00" from="153813480#1" to="23502703#0" type="passenger"/>
    <trip id="veh143" depart="286.00" from="407507551#0" to="-363250047#1" type="passenger"/>
    <trip id="veh144" depart="288.00" from="31779987#2" to="98243453#0" type="passenger"/>
    <trip id="veh145" depart="290.00" from="98243453#0" to="-4167752#5" type="passenger"/>
    <trip id="veh146" depart="292.00" from="141001277#1" to="-335458843#3" type="passenger"/>
    <trip id="veh147" depart="294.00" from="-24221154#2" to="-14746698#0" type="passenger"/>
    <trip id="veh148" depart="296.00" from="189607534" to="-41789174#1" type="passenger"/>
    <trip id="veh149" depart="298.00" from="329385931" to="32971780" type="passenger"/>
    <trip id="veh150" depart="300.00" from="216696534#0" to="253255498#1" type="passenger"/>
    <trip id="veh151" depart="302.00" from="4005327#0" to="70308166#0" type="passenger"/>
    <trip id="veh152" depart="304.00" from="29185834" to="-24382056" type="passenger"/>
    <trip id="veh153" depart="306.00" from="22942636" to="-4006129#2" type="passenger"/>
    <trip id="veh154" depart="308.00" from="300579849" to="-390882900#1" type="passenger"/>
    <trip id="veh155" depart="310.00" from="216525620#1" to="219931305#0" type="passenger"/>
    <trip id="veh156" depart="312.00" from="293192364#0" to="4005312#3" type="passenger"/>
    <trip id="veh157" depart="314.00" from="22942636" to="23502714#4" type="passenger"/>
    <trip id="veh158" depart="316.00" from="41362978#1" to="298236444#0" type="passenger"/>
    <trip id="veh159" depart="318.00" from="98243453#1" to="219930008#2" type="passenger"/>
    <trip id="veh160" depart="320.00" from="214533615#2" to="-76699170#7" type="passenger"/>
    <trip id="veh161" depart="322.00" from="19881825#0" to="45291840" type="passenger"/>
    <trip id="veh162" depart="324.00" from="42332873#0" to="123992173" type="passenger"/>
    <trip id="veh163" depart="326.00" from="468563689" to="14746315#4" type="passenger"/>
    <trip id="veh164" depart="328.00" from="335458843#2" to="403367818#1" type="passenger"/>
    <trip id="veh165" depart="330.00" from="-189146659#0" to="407507551#0" type="passenger"/>
    <trip id="veh166" depart="332.00" from="14742783#1" to="219860808" type="passenger"/>
    <trip id="veh167" depart="334.00" from="-34857878#1" to="24603775#1" type="passenger"/>
    <trip id="veh168" depart="336.00" from="21670319#0" to="-131355231#0" type="passenger"/>
    <trip id="veh169" depart="338.00" from="-25535043#0" to="98243453#0" type="passenger"/>
    <trip id="veh170" depart="340.00" from="219845960" to="32971780" type="passenger"/>
    <trip id="veh171" depart="342.00" from="293192087#0" to="-302122272#0" type="passenger"/>
    <trip id="veh172" depart="344.00" from="-13538420#1" to="219931303" type="passenger"/>
    <trip id="veh173" depart="346.00" from="14746315#9" to="23209195" type="passenger"/>
    <trip id="veh174" depart="348.00" from="216696534#0" to="253257355#0" type="passenger"/>
    <trip id="veh175" depart="350.00" from="422499961" to="162583594#0" type="passenger"/>
    <trip id="veh176" depart="352.00" from="366527817#0" to="50886938#4" type="passenger"/>
    <trip id="veh177" depart="354.00" from="19882350#1" to="-394123967#0" type="passenger"/>
    <trip id="veh178" depart="356.00" from="98243453#0" to="123991331#1" type="passenger"/>
    <trip id="veh179" depart="358.00" from="356783203" to="224315807#1" type="passenger"/>
    <trip id="veh180" depart="360.00" from="58741183#0" to="141001279#0" type="passenger"/>
    <trip id="veh181" depart="362.00" from="-31779987#0" to="342652996#1" type="passenger"/>
    <trip id="veh182" depart="364.00" from="-24162558#0" to="-177604960#15" type="passenger"/>
    <trip id="veh183" depart="366.00" from="24529312#1" to="-160531219#1" type="passenger"/>
    <trip id="veh184" depart="368.00" from="-162583593#0" to="22952574#1" type="passenger"/>
    <trip id="veh185" depart="370.00" from="-24162437#1" to="376735321" type="passenger"/>
    <trip id="veh186" depart="372.00" from="24603868#1" to="14746698#0" type="passenger"/>
    <trip id="veh187" depart="374.00" from="24382199" to="222183027" type="passenger"/>
    <trip id="veh188" depart="376.00" from="176090836#0" to="253255126" type="passenger"/>
    <trip id="veh189" depart="378.00" from="342652996#1" to="24267451" type="passenger"/>
    <trip id="veh190" depart="380.00" from="23209190" to="-222183037#0" type="passenger"/>
    <trip id="veh191" depart="382.00" from="222183037#9" to="123991331#1" type="passenger"/>
    <trip id="veh192" depart="384.00" from="222162716#1" to="34392719#0" type="passenger"/>
    <trip id="veh193" depart="386.00" from="23473100#1" to="352799162#1" type="passenger"/>
    <trip id="veh194" depart="388.00" from="98243453#1" to="29185834" type="passenger"/>
    <trip id="veh195" depart="390.00" from="222151428#1" to="-13538420#1" type="passenger"/>
    <trip id="veh196" depart="392.00" from="4005317#0" to="24221156#3" type="passenger"/>
    <trip id="veh197" depart="394.00" from="-334951829#2" to="300579849" type="passenger"/>
    <trip id="veh198" depart="396.00" from="14746698#0" to="193043054#0" type="passenger"/>
    <trip id="veh199" depart="398.00" from="31779987#2" to="218787177#2" type="passenger"/>
    <trip id="veh200" depart="400.00" from="302105467#0" to="34398520" type="passenger"/>
    <trip id="veh201" depart="402.00" from="427501181#1" to="-24162437#3" type="passenger"/>
    <trip id="veh202" depart="404.00" from="-146327577#1" to="19881825#0" type="passenger"/>
    <trip id="veh203" depart="406.00" from="367536576#4" to="236611341#2" type="passenger"/>
    <trip id="veh204" depart="408.00" from="98243457#0-AddedOffRampEdge" to="50886984#0" type="passenger"/>
    <trip id="veh205" depart="410.00" from="407507554#3" to="4006134#2" type="passenger"/>
    <trip id="veh206" depart="412.00" from="219860820#0" to="-14743177#1" type="passenger"/>
    <trip id="veh207" depart="414.00" from="14746315#11" to="219433272" type="passenger"/>
    <trip id="veh208" depart="416.00" from="62207368#1" to="23209195" type="passenger"/>
    <trip id="veh209" depart="418.00" from="219845960" to="219845317#0" type="passenger"/>
    <trip id="veh210" depart="420.00" from="-356783203" to="-76699170#10" type="passenger"/>
    <trip id="veh211" depart="422.00" from="-24382104#3" to="-240851569#0" type="passenger"/>
    <trip id="veh212" depart="424.00" from="-335460212" to="41112543#3" type="passenger"/>
    <trip id="veh213" depart="426.00" from="98243535" to="14746698#3" type="passenger"/>
    <trip id="veh214" depart="428.00" from="232906759#0" to="13538422#2" type="passenger"/>
    <trip id="veh215" depart="430.00" from="-31779987#1" to="442959893" type="passenger"/>
    <trip id="veh216" depart="432.00" from="218787177#4" to="350687462#1" type="passenger"/>
    <trip id="veh217" depart="434.00" from="98243453#0" to="403367818#1" type="passenger"/>
    <trip id="veh218" depart="436.00" from="-34857878#1" to="-500300650#1" type="passenger"/>
    <trip id="veh219" depart="438.00" from="300579849" to="-4005312#2" type="passenger"/>
    <trip id="veh220" depart="440.00" from="-14743919#2" to="334951837#1" type="passenger"/>
    <trip id="veh221" depart="442.00" from="367536576#4" to="219931303" type="passenger"/>
    <trip id="veh222" depart="444.00" from="261803393#2" to="222183037#9" type="passenger"/>
    <trip id="veh223" depart="446.00" from="22952577#1" to="42332877" type="passenger"/>
    <trip id="veh224" depart="448.00" from="-14746315#11" to="176090837#1" type="passenger"/>
    <trip id="veh225" depart="450.00" from="222151428#1" to="24162437#1" type="passenger"/>
    <trip id="veh226" depart="452.00" from="-293192364#2" to="127701141" type="passenger"/>
    <trip id="veh227" depart="454.00" from="-24159276#3" to="31779987#0" type="passenger"/>
    <trip id="veh228" depart="456.00" from="22689358" to="218787180#1" type="passenger"/>
    <trip id="veh229" depart="458.00" from="60834257" to="24382162#1" type="passenger"/>
    <trip id="veh230" depart="460.00" from="-4321251#1" to="219845319#0" type="passenger"/>
    <trip id="veh231" depart="462.00" from="448090102#2" to="30759017" type="passenger"/>
    <trip id="veh232" depart="464.00" from="-302298890#0" to="448090102#2" type="passenger"/>
    <trip id="veh233" depart="466.00" from="-35676861#2" to="253255126" type="passenger"/>
    <trip id="veh234" depart="468.00" from="98243457#1" to="-427501865#1" type="passenger"/>
    <trip id="veh235" depart="470.00" from="24603868#1" to="23689279#1" type="passenger"/>
    <trip id="veh236" depart="472.00" from="-13540489#1" to="334951837#1" type="passenger"/>
    <trip id="veh237" depart="474.00" from="219433272" to="200694048#2" type="passenger"/>
    <trip id="veh238" depart="476.00" from="4006138" to="98243452" type="passenger"/>
    <trip id="veh239" depart="478.00" from="98243453#0" to="-62152611#0" type="passenger"/>
    <trip id="veh240" depart="480.00" from="32971625" to="222151428#1" type="passenger"/>
    <trip id="veh241" depart="482.00" from="30679731" to="4321251#0" type="passenger"/>
    <trip id="veh242" depart="484.00" from="448090102#0" to="-222183037#19" type="passenger"/>
    <trip id="veh243" depart="486.00" from="-24529312#1" to="123991331#1" type="passenger"/>
    <trip id="veh244" depart="488.00" from="133669149#3" to="-236611341#0" type="passenger"/>
    <trip id="veh245" depart="490.00" from="24382104#3" to="329385931" type="passenger"/>
    <trip id="veh246" depart="492.00" from="76699170#1" to="222183037#14" type="passenger"/>
    <trip id="veh247" depart="494.00" from="123991331#0" to="33406495#1" type="passenger"/>
    <trip id="veh248" depart="496.00" from="216696534#0" to="403367818#1" type="passenger"/>
    <trip id="veh249" depart="498.00" from="14746315#6" to="24382119#1" type="passenger"/>
    <trip id="veh250" depart="500.00" from="75838577#1" to="-253257351#1" type="passenger"/>
    <trip id="veh251" depart="502.00" from="58741179#1" to="133669149#1" type="passenger"/>
    <trip id="veh252" depart="504.00" from="-363412672" to="503003069#5" type="passenger"/>
    <trip id="veh253" depart="506.00" from="146154647#0" to="-200694048#2" type="passenger"/>
    <trip id="veh254" depart="508.00" from="24382162#0" to="123991331#1" type="passenger"/>
    <trip id="veh255" depart="510.00" from="300579849" to="-219931065" type="passenger"/>
    <trip id="veh256" depart="512.00" from="394123967#0" to="75609370" type="passenger"/>
    <trip id="veh257" depart="514.00" from="-23502703#0" to="28614611" type="passenger"/>
    <trip id="veh258" depart="516.00" from="4006129#0" to="-324035620#0" type="passenger"/>
    <trip id="veh259" depart="518.00" from="4006138" to="98243535" type="passenger"/>
    <trip id="veh260" depart="520.00" from="216696534#0" to="329385931" type="passenger"/>
    <trip id="veh261" depart="522.00" from="218787177#1" to="253255132#0" type="passenger"/>
    <trip id="veh262" depart="524.00" from="14742783#1" to="-25535043#0" type="passenger"/>
    <trip id="veh263" depart="526.00" from="-334951836#2" to="-335458843#2" type="passenger"/>
    <trip id="veh264" depart="528.00" from="6147949" to="-189146646" type="passenger"/>
    <trip id="veh265" depart="530.00" from="24159283#3" to="22689358" type="passenger"/>
    <trip id="veh266" depart="532.00" from="27767453" to="297759222#0" type="passenger"/>
    <trip id="veh267" depart="534.00" from="-8587906#5" to="4005317#2" type="passenger"/>
    <trip id="veh268" depart="536.00" from="32971780" to="428965774" type="passenger"/>
    <trip id="veh269" depart="538.00" from="302122272#0" to="-503004021#0" type="passenger"/>
    <trip id="veh270" depart="540.00" from="23630613#0" to="-189146646" type="passenger"/>
    <trip id="veh271" depart="542.00" from="-34392713" to="-26171361#1" type="passenger"/>
    <trip id="veh272" depart="544.00" from="298236444#0" to="-461110435#0" type="passenger"/>
    <trip id="veh273" depart="546.00" from="34872563#7" to="127701141" type="passenger"/>
    <trip id="veh274" depart="548.00" from="-22689360#0" to="98243453#0" type="passenger"/>
    <trip id="veh275" depart="550.00" from="62207369#2" to="141001279#2" type="passenger"/>
    <trip id="veh276" depart="552.00" from="13541130" to="329385931" type="passenger"/>
    <trip id="veh277" depart="554.00" from="329385932" to="-4006129#2" type="passenger"/>
    <trip id="veh278" depart="556.00" from="-14746315#1" to="36924915" type="passenger"/>
    <trip id="veh279" depart="558.00" from="14973829" to="311639018#1" type="passenger"/>
    <trip id="veh280" depart="560.00" from="157332776#1" to="133669149#3" type="passenger"/>
    <trip id="veh281" depart="562.00" from="64613827#1" to="4006129#0" type="passenger"/>
    <trip id="veh282" depart="564.00" from="41362978#1" to="394123967#3" type="passenger"/>
    <trip id="veh283" depart="566.00" from="24529312#1" to="98243453#1" type="passenger"/>
    <trip id="veh284" depart="568.00" from="310728722#0" to="4018705" type="passenger"/>
    <trip id="veh285" depart="570.00" from="29185834" to="13538420#1" type="passenger"/>
    <trip id="veh286" depart="572.00" from="204666614" to="123991331#1" type="passenger"/>
    <trip id="veh287" depart="574.00" from="23209182#0" to="218787180#1" type="passenger"/>
    <trip id="veh288" depart="576.00" from="98243453#1" to="4006129#0" type="passenger"/>
    <trip id="veh289" depart="578.00" from="35155436#0" to="14746698#0" type="passenger"/>
    <trip id="veh290" depart="580.00" from="33111441#0" to="219931304" type="passenger"/>
    <trip id="veh291" depart="582.00" from="-25534783#5" to="5084883#1" type="passenger"/>
    <trip id="veh292" depart="584.00" from="212507396" to="-248061547" type="passenger"/>
    <trip id="veh293" depart="586.00" from="15807909" to="98243453#0" type="passenger"/>
    <trip id="veh294" depart="588.00" from="253255133#0" to="28866882" type="passenger"/>
    <trip id="veh295" depart="590.00" from="24221156#3" to="407507554#4" type="passenger"/>
    <trip id="veh296" depart="592.00" from="98243453#0" to="-286809510#1" type="passenger"/>
    <trip id="veh297" depart="594.00" from="19882351" to="14746566" type="passenger"/>
    <trip id="veh298" depart="596.00" from="19881825#1" to="363834574#0" type="passenger"/>
    <trip id="veh299" depart="598.00" from="496548128" to="-302298890#0" type="passenger"/>
    <trip id="veh300" depart="600.00" from="-4006129#3" to="-24382119#3" type="passenger"/>
    <trip id="veh301" depart="602.00" from="19882354" to="204666616" type="passenger"/>
    <trip id="veh302" depart="604.00" from="26129097#3" to="133669149#3" type="passenger"/>
    <trip id="veh303" depart="606.00" from="24382162#2" to="-236611341#3" type="passenger"/>
    <trip id="veh304" depart="608.00" from="14746315#9" to="511532423" type="passenger"/>
    <trip id="veh305" depart="610.00" from="-363412670#5" to="-25535043#1" type="passenger"/>
    <trip id="veh306" depart="612.00" from="26171361#0" to="407507550#1" type="passenger"/>
    <trip id="veh307" depart="614.00" from="-50886985#5" to="-503004021#6" type="passenger"/>
    <trip id="veh308" depart="616.00" from="58741179#1" to="503004021#8" type="passenger"/>
    <trip id="veh309" depart="618.00" from="70308166#0" to="-4006129#5" type="passenger"/>
    <trip id="veh310" depart="620.00" from="24221156#3" to="160531220#2" type="passenger"/>
    <trip id="veh311" depart="622.00" from="4005312#1" to="13538433#7" type="passenger"/>
    <trip id="veh312" depart="624.00" from="-248061547" to="253255132#1" type="passenger"/>
    <trip id="veh313" depart="626.00" from="-24221154#0" to="-36924899" type="passenger"/>
    <trip id="veh314" depart="628.00" from="219433270" to="427501181#1" type="passenger"/>
    <trip id="veh315" depart="630.00" from="-193043048" to="-24221154#0" type="passenger"/>
    <trip id="veh316" depart="632.00" from="293191369#3" to="42332877" type="passenger"/>
    <trip id="veh317" depart="634.00" from="300579849" to="-222183037#14" type="passenger"/>
    <trip id="veh318" depart="636.00" from="36924915" to="300579849" type="passenger"/>
    <trip id="veh319" depart="638.00" from="-363412672" to="253257353" type="passenger"/>
    <trip id="veh320" depart="640.00" from="329385931" to="42332873#0" type="passenger"/>
    <trip id="veh321" depart="642.00" from="14743546#5" to="-23143677#2" type="passenger"/>
    <trip id="veh322" depart="644.00" from="22942636" to="30759018" type="passenger"/>
    <trip id="veh323" depart="646.00" from="162583594#0" to="123991331#0" type="passenger"/>
    <trip id="veh324" depart="648.00" from="13538420#1" to="-24382119#3" type="passenger"/>