<?xml version="1.0" encoding="UTF-8"?>

<!-- generated on Tue Oct 31 11:34:57 2017 by SUMO duarouter Version svn
<?xml version="1.0" encoding="UTF-8"?>

<configuration xmlns:xsi="http://www.w3.org/2001/XMLSchema-instance" xsi:noNamespaceSchemaLocation="http://sumo.dlr.de/xsd/duarouterConfiguration.xsd">

    <input>
        <net-file value="config/toronto.net.xml"/>
        <route-files value="config/toronto.passenger.trips.xml"/>
    </input>

    <output>
        <output-file value="config/toronto.passenger.rou.xml"/>
    </output>

    <processing>
        <ignore-errors value="true"/>
    </processing>

    <time>
        <begin value="0"/>
        <end value="3600"/>
    </time>

    <report>
        <no-warnings value="true"/>
        <no-step-log value="true"/>
    </report>

</configuration>
-->

<routes xmlns:xsi="http://www.w3.org/2001/XMLSchema-instance" xsi:noNamespaceSchemaLocation="http://sumo.dlr.de/xsd/routes_file.xsd">
    <vType id="passenger" speedFactor="normc(1.00,0.10,0.20,2.00)" vClass="passenger"/>
    <vehicle id="veh0" type="passenger" depart="0.00">
        <route edges="98243453#1 98243453#1-AddedOffRampEdge 19882351 19882361 19881825#1 19881825#2 127701248#1 33111441#0 33111443 19882350#1 127701141 329385931 98243535 98243456 29185834 4006140 22942635#0 22942635#1 253257355#0 218811816#0 218811816#2 218811816#3 218811816#4 253257353 253255126 253255130#0 253255130#1 253255498#0 253255498#1"/>
    </vehicle>
    <vehicle id="veh1" type="passenger" depart="2.00">
        <route edges="30759017 30759018 44073335#1 44073334#0 44073334#1 44073334#2 23483898#0 23483898#1 23483898#2 219845396#0 219845396#1 435301383#0 435301383#1 219931835#0 219930008#2 219931303 219931304 -219931065 -34891974 -219845317#1 -219845317#0 -219845318#3 -219845318#2 -219845318#1 -219845318#0 -334951829#3 -334951829#2 -334951829#1 -334951829#0 219845319#0 367536576#1 367536576#2 367536576#3 367536576#4 487435759 218811400 218811399#0 218811399#1 30679732#0 30679732#1 30679732#2 298236443#1 40542318#0 40542318#1 298236442 98243457#0 98243457#0-AddedOffRampEdge 98243457#1 127701141 329385931 98243535 98243456 29185834 4006140 22942635#0 22942635#1 253257355#0 -4006130#1 -4006130#0 218811817#0 218811817#2 375687205#0 375687205#1 4006138 123992173"/>
    </vehicle>
    <vehicle id="veh3" type="passenger" depart="6.00">
        <route edges="24382202 98243453#0 98243453#0-AddedOffRampEdge 19882352 14743962 218811612#0 218811612#2 218787180#1 218787177#0 218787177#1 218787177#2 218787177#4 75609472#0 75609472#1 162582242#0 162582242#1 4006127 4006132#0 366749405#0 366749405#1 366749405#2 22942635#0 22942635#1 253257355#0 253257351#0 -494886774"/>
    </vehicle>
    <vehicle id="veh4" type="passenger" depart="8.00">
        <route edges="329385931 98243535 98243456 29185834 4006140 22942635#0 22942635#1 253257355#0 -4006130#1 -4006130#0 218811817#0 218811817#2 375687205#0 375687205#1 22942636 428965774 222151428#1 222151428#2 4006134#1 4006134#2 34720693 503003067 75609370 -338717357 338717361 -338717358#1 -338717358#0 -302122272#1 -302122272#0 -302122269#1 -302122269#0 447473037#0 447473037#1 447473037#2 310728722#0"/>
    </vehicle>
    <vehicle id="veh6" type="passenger" depart="12.00">
        <route edges="253257351#0 -494886774 -494886775 -24382056 253257355#0 -4006130#1 -4006130#0 218811817#0 218811817#2 375687205#0 375687205#1 4006138 123992173 98243453#0 98243453#0-AddedOffRampEdge 19882352 218811613 271664520 28614656#1 28614656#2 -407507553#3 -407507553#2 -407507553#1 -177604960#19 -177604960#18 -177604960#15 -177604960#14 -24603775#2 -24603775#1 -23473100#1"/>
    </vehicle>
    <vehicle id="veh7" type="passenger" depart="14.00">
        <route edges="-76536407#3 -76536407#2 -316826798#2 -316826798#1 -316826798#0 -316826797#1 76536406 219433272 299158323#0 299158323#1 41363028#0 41363028#1 41363028#2 189607127 189607128#0 189607128#1 189607128#2 22689358 41363149#3 41363149#4 41363149#5 301176835#0 301176835#1 240852334 -352910385 -64613829 240852335#0 240852335#1 64613827#1 64613828#0 64613828#1 64613828#2 446793601#0 446793601#1 35155436#0 35155436#1 35155434 212507396 109969692#1 24221146#1 189607534 24221148#1 24221148#2 24221148#3 24221148#4"/>
    </vehicle>
    <vehicle id="veh8" type="passenger" depart="16.00">
        <route edges="286809515#2 286809515#3 286809516#1 286809516#2 286809516#3 286809508#0 286809508#1 286809508#2 286809508#3 302118618#0 302118618#1 -162583593#0 286809511#0 286809511#1 -162583594#1 -162583594#0 -25714346 153813487#0 153813487#1 153813487#2 153813488#1 153813488#2 153813488#3 302108709#0 302108709#1 447473037#0 447473037#1 447473037#2 310728722#0 -356783203 297758559#0 297758559#1 -297759222#0 -310728722#2"/>
    </vehicle>
    <vehicle id="veh9" type="passenger" depart="18.00">
        <route edges="253257582#1 253257582#2 253257581#0 218811817#0 218811817#2 375687205#0 375687205#1 4006138 123992173 98243453#0 98243453#0-AddedOffRampEdge 19882352 218811611 367039069 30679725 24221156#0 19882353"/>
    </vehicle>
    <vehicle id="veh12" type="passenger" depart="24.00">
        <route edges="23143677#2 23143677#3 -23143684#4 -23143684#3 -23143684#2 -23143684#1 4017378#0 4017378#1 228017232#0 228017232#1 228017232#2 25714346 162583594#0 162583594#1 4005309#0 4005309#1 4005309#2 4005309#3 4005309#4 503004019 503004021#0 503004021#1 503004021#2 503004021#5 503004021#6 503004021#7 503004021#8 448090102#2 448090102#3 4006136 218811611 4321252 34398520 98243454 32971625 19881833 34398658 329385932 141001279#0 141001279#1 141001279#2 141001279#5 4005326 334951829#0 334951829#1 334951829#2"/>
    </vehicle>
    <vehicle id="veh15" type="passenger" depart="30.00">
        <route edges="324035620#0 203963763#1 203963763#2 203963763#3 14742783#1 216264122#1 45474593 455493968 40542318#0 40542318#1 298236444#0 298236444#1 24603868#1 24603868#2 24603868#3 58741179#1 127701247#1 41789164#1 -35676861#2 -35676861#0 19882350#1"/>
    </vehicle>
    <vehicle id="veh16" type="passenger" depart="32.00">
        <route edges="253255126 341352423#0 253257582#0 253257582#1"/>
    </vehicle>
    <vehicle id="veh18" type="passenger" depart="36.00">
        <route edges="26171446#1 26171446#2 26171363 26171357 -26171446#2 -26171446#1 50886984#0 50886984#1 366749405#1 366749405#2 22942635#0 22942635#1 253257355#0 -4006130#1 -4006130#0 218811817#0 218811817#2 375687205#0 375687205#1 23209221#0 23209221#1 23209221#2 23209221#3 23209221#4"/>
    </vehicle>
    <vehicle id="veh19" type="passenger" depart="38.00">
        <route edges="98243535 98243456 29185834 4006140 22942635#0 22942635#1 253257355#0 -4006130#1 -4006130#0 218811817#0 218811817#2 375687205#0 375687205#1 4006138 123992173 98243453#0 98243453#0-AddedOffRampEdge 98243453#1 98243453#1-AddedOffRampEdge 19882351 19882361 19881825#1 19881825#2 127701248#1 33111441#0 33111443 19882350#1 127701141"/>
    </vehicle>
    <vehicle id="veh24" type="passenger" depart="48.00">
        <route edges="22689358 41363149#3 41363149#4 41363149#5 301176835#0 301176835#1 240852334 -352910385 -64613829 240852335#0 240852335#1 64613827#1 64613828#0 64613828#1 64613828#2 446793601#0 446793601#1 35155436#0 35155436#1 35155434 212507396 109969692#1 24221146#1 189607534 25714334#1 468563689 224315807#0 224315807#1 224315808#1 224315808#2 162585239#0 162585239#1 407507552#1 -407507550#1 -407507550#0 302105470#0 -302105467#0 286809509#0 286809509#1 -302105475#1 -302105475#0 -286809510#1 -286809510#0 -162583593#0 286809511#0 286809511#1 -162583594#1 -162583594#0 -25714346 -228017232#2 -228017232#1 -228017232#0 -327522511#4 -327522511#3 -327522511#2 -327522511#0 -327522509#2 -327522509#1 -327522509#0 -327522510#4 -327522510#3 -327522510#2 -327522510#1 -327522510#0 -36924916 36924915 14973755 4005317#0 4005317#1 4005317#2 4005317#3 448258358 448258357 14973829 24267451 151178680"/>
    </vehicle>
    <vehicle id="veh25" type="passenger" depart="50.00">
        <route edges="98243454 32971625 123991331#0 123991331#1-AddedOnRampEdge 123991331#1"/>
    </vehicle>
    <vehicle id="veh27" type="passenger" depart="54.00">
        <route edges="26697083#0 26697083#1 14973755 4005317#0 4005317#1 4005317#2 4005317#3 461110435#0 461110435#1 461110435#3 461110434 4005312#0 -23209221#6 -23209221#5 -23209221#4 -23209221#3 -23209221#2 -23209221#1 -23209221#0 4006138 123992173 98243453#0 98243453#0-AddedOffRampEdge 98243453#1 98243453#1-AddedOffRampEdge 98243455 98243452 98243454 32971625 19881833 34398658 329385932 141001279#0 141001279#1 141001279#2 141001279#5 4005326 334951829#0 334951829#1 334951829#2 334951829#3 4078848 435298981 219845428 -23502714#6 -311030155#1 -311030155#0 83070604#4 83070604#5 83070617 83070613#0 83070613#1 44073329 -23502703#4 -23502703#3 -23502703#2 -23502703#0"/>
    </vehicle>
    <vehicle id="veh28" type="passenger" depart="56.00">
        <route edges="253257582#1 253257582#2 253257581#0 218811817#0 218811817#2 375687205#0 375687205#1 4006138 123992173 98243453#0 98243453#0-AddedOffRampEdge 98243453#1 98243453#1-AddedOffRampEdge 98243455 98243452 98243454 32971625 19881833 34398658 329385932 141001279#0 141001279#1 141001279#2 141001279#5 4005326 334951829#0 334951829#1 334951829#2 334951829#3 4078848 435298981 219845428 -23502714#6 -23502714#5 -23502714#4 -23502714#3 -23502714#2 -23502714#1 -23502714#0 23502722#0 23502722#1 23502722#2 -76699170#11 -76699170#10 -76699170#9 -76699170#8 -76699170#7 -76699170#6 -76699170#5 -76699170#4"/>
    </vehicle>
    <vehicle id="veh29" type="passenger" depart="58.00">
        <route edges="-24382120#4 24382104#0 -24382119#0 363412670#6 363412670#9 456345217 24382082#0 24382082#1 456345218 4006134#2 4006134#4 448090108 448090102#0 448090102#1 448090102#2 448090102#3 4006136 218811611 19881825#0 19881825#1 19881825#2 127701248#1 33111441#0 33111442#1 326994924#0 326994924#1 32971627#0 32971627#1 58741184#0 58741184#1 334951837#1 35893778#0 35893778#1 455493968 371542516#0 371542516#1 371542516#2 41789174#0 41789174#1 41789175"/>
    </vehicle>
    <vehicle id="veh30" type="passenger" depart="60.00">
        <route edges="162582242#0 162582242#1 4006127 4006132#0 366749405#0 -50886984#1 -50886984#0 -26171446#0 26171444 -25535043#1 24382162#2"/>
    </vehicle>
    <vehicle id="veh31" type="passenger" depart="62.00">
        <route edges="-271664959#3 -271664959#2 187316849#4 187316849#5 187316849#6 187316849#8 -503004018#0 -118775066 286809508#0 286809508#1 286809508#2 286809508#3 302118618#0 302118618#1 -162583593#0 286809511#0 286809511#1 -162583594#1 -162583594#0 -25714346 -228017232#2 -228017232#1 -228017232#0 -327522511#4 -327522511#3 -327522511#2 -327522511#0 -327522509#2 -327522509#1 -327522509#0 -327522510#4 -327522510#3 -327522510#2 -327522510#1 -327522510#0 -36924916 36924915 14973755 4005317#0 4005317#1 4005317#2 4005317#3 461110435#0 461110435#1 461110435#3 461110434 4005312#0 -23209221#6 -23209221#5 -23209221#4 -23209221#3 -23209221#2 -23209221#1 -23209221#0 4006138 123992173"/>
    </vehicle>
    <vehicle id="veh33" type="passenger" depart="66.00">
        <route edges="39162399 23110966#0 23110966#1 64613828#0 64613828#1 64613828#2 446793601#0 446793601#1 35155436#0 35155436#1 35155434 212507396 109969692#1 24221146#1 189607534 25714334#1 -4674704#3 -4674704#1 177604960#0 177604960#1 177604960#2 177604960#3 177604960#4 177604960#5 177604960#6 177604960#7 177604960#8 177604960#9 177604960#11 177604960#14 177604960#15 177604960#18 177604960#19 407507553#1 407507553#2 407507553#3 33406495#0 33406495#1 261803393#1 261803393#2"/>
    </vehicle>
    <vehicle id="veh34" type="passenger" depart="68.00">
        <route edges="14743919#3 24221156#3 -14743962 218811611 19881825#0 19881825#1 19881825#2 127701248#1 33111441#0 33111442#1 326994924#0 326994924#1 32971627#0 32971627#1 58741184#0 58741184#1 334951837#1 35893778#0 35893778#1 455493968 371542516#0 371542516#1 371542516#2 41789174#0"/>
    </vehicle>
    <vehicle id="veh35" type="passenger" depart="70.00">
        <route edges="445664696 435288254#0 435288254#1 435288254#2 41789169#0 41789169#1 41789169#2 41789169#3 41789169#4 41789169#5 334951835 334951837#1 455493969#0 455493969#1 141001277#0 141001277#1"/>
    </vehicle>
    <vehicle id="veh36" type="passenger" depart="72.00">
        <route edges="-33111443 33111442#1 326994924#0 326994924#1 32971627#0 32971627#1 58741183#0 58741179#1 127701247#1 41789164#1 41789165#1 41789165#3 322399446#1 322399445#0 322399445#1 121948124 4006142#0 4006142#1 4006142#2 42334930 24221155#0 14743778#0 14743817#1 218811509#0 218811509#1 24221156#0 24221156#2 24221156#3 218811612#0 218811612#2 218787180#1 218787177#0 218787177#1 218787177#2 218787177#4 75609472#0 75609472#1 162582242#0 162582242#1 4006127 4006132#0 366749405#0 366749405#1 -24382162#3 -24382162#2 -24382162#1 -24382162#0 50886985#0 50886985#1 50886985#2 50886985#3 50886985#4 50886985#5 50886985#6"/>
    </vehicle>
    <vehicle id="veh37" type="passenger" depart="74.00">
        <route edges="31733044#0 31733044#1 31733044#2 -302007925#1 -302007925#0 -302007832#1 7969181#1 302007829#0 5103831#1 5103831#2 -302007829#0 -7969181#1 302007832#1 302007925#0 302007925#1 58741182 58741183#0 58741179#1 127701247#1 41789164#1 41789165#1 41789165#3 322399446#1 322399445#0 322399445#1 121948124 4006142#0 4006142#1 4006142#2 42334930 24221155#0 14743778#0 14743817#1 218811509#0 218811509#1 24221156#0 24221156#2 24221156#3 218811612#0 218811612#2 218787180#1 218787177#0 218787177#1 218787177#2 24382080#0 24382080#1 24382080#2 -24382072 -363412670#8 -363412670#5 -363412670#4 -363412670#2 -363412670#1 -363412670#0 -363412672 -24382070#3 -24382070#1 -394123967#2 -394123967#1 -394123967#0 -31779987#3 -31779987#2 -31779987#1 -31779987#0 4006147 4006144#0 222183027"/>
    </vehicle>
    <vehicle id="veh39" type="passenger" depart="78.00">
        <route edges="-28614656#0 -218811613 14743962 218811612#0 218811612#2 218787180#1 218787177#0 218787177#1 218787177#2 218787177#4 75609472#0 75609472#1 162582242#0 162582242#1 4006127 4006132#0 366749405#0 366749405#1 366749405#2 22942635#0 22942635#1 253257355#0 -4006130#1 -4006130#0 218811817#0 218811817#2 375687205#0 375687205#1 4006138 123992173"/>
    </vehicle>
    <vehicle id="veh40" type="passenger" depart="80.00">
        <route edges="-22635253#2 -22635253#1 22635253#1 22635253#2 341352423#0 253257582#0 253257582#1 253257582#2 253257581#0 218811817#0 218811817#2 375687205#0 375687205#1 4006138 123992173 98243453#0"/>
    </vehicle>
    <vehicle id="veh43" type="passenger" depart="86.00">
        <route edges="24382120#4 24382120#5 363412670#9 456345217 24382082#0 24382082#1 456345218 4006134#2 4006134#4 448090108 448090102#0 448090102#1 448090102#2 448090102#3 4006136 218811611 4321252 34398520 98243454 32971625 19881833 34398658 329385932 141001279#0 141001279#1 141001279#2 141001279#5 4005326 334951829#0 334951829#1 334951829#2 334951829#3 4078848 435298981 219845428 -23502714#6 -23502714#5 -23502714#4 -23502714#3 -23502714#2 -23502714#1 -23502714#0 23502722#0 23502722#1 23502722#2 -76699170#11 -76699170#10 -76699170#9 -76699170#8 -76699170#7 -76699170#6 -76699170#5 -76699170#4 -76699170#3 -76699170#2"/>
    </vehicle>
    <vehicle id="veh44" type="passenger" depart="88.00">
        <route edges="222183027 -14746698#3 -14746698#2 -14746698#1 -14746698#0 22635253#0 22635253#1 22635253#2 341352423#0 253257582#0 253257582#1 253257582#2 253257581#0 218811817#0 218811817#2 375687205#0 375687205#1 4006138 123992173 98243453#0 98243453#0-AddedOffRampEdge 98243453#1 98243453#1-AddedOffRampEdge 19882351 19882361 19881825#1 19881825#2 127701248#1 33111441#0 33111442#1 326994924#0 326994924#1 32971627#0 32971627#1 58741184#0 58741184#1 334951837#1 35893778#0 35893778#1 455493968 40542318#0 40542318#1 298236442 98243457#0 98243457#0-AddedOffRampEdge 34398517"/>
    </vehicle>
    <vehicle id="veh47" type="passenger" depart="94.00">
        <route edges="19882595#1 5103831#2 -302007829#0 -7969181#1 302007832#1 302007925#0 302007925#1 58741182 58741183#0 58741179#1 127701247#1 41789164#1 -35676861#2 -35676861#0 19882350#1 127701141 329385931 98243535 98243456 29185834 4006140 22942635#0 22942635#1 253257355#0 218811816#0 218811816#2 218811816#3 218811816#4 253257353 253255126 -22635253#2 -22635253#1 -22635253#0 14746698#0 14746698#1 14746698#2 14746698#3 -222183031 -4006144#0 -4006147 31779987#0 31779987#1 31779987#2"/>
    </vehicle>
    <vehicle id="veh49" type="passenger" depart="98.00">
        <route edges="286809510#1 302105475#0 302105475#1 286809515#1 286809515#2 286809515#3 -407507554#4 -407507554#3 -407507554#2 -407507554#1 -407507554#0 -28614656#2 -28614656#1 -28614656#0 -218811613 14743962 218811612#0 218811612#2 218787180#1 218787177#0 218787177#1 218787177#2 218787177#4 75609472#0 75609472#1 162582242#0 162582242#1 4006127 4006132#0 366749405#0 366749405#1 366749405#2 22942635#0 22942635#1 253257355#0 218811816#0 218811816#2 218811816#3 218811816#4 253257353 253255126 -22635253#2 -22635253#1 -22635253#0 14746698#0 14746698#1 14746698#2 14746698#3 -222183031 -4006144#0 -4006147 31779987#0"/>
    </vehicle>
    <vehicle id="veh54" type="passenger" depart="108.00">
        <route edges="98243535 98243456 29185834 4006140 22942635#0 22942635#1 253257355#0 -4006130#1 -4006130#0 218811817#0 218811817#2 375687205#0 375687205#1 22942636 428965774 222151428#1 222151428#2 4006134#1 4006134#2 34720693 503003067 75609370 -338717357 338717361 -338717358#1 -338717358#0 -302122272#1 -302122272#0 -302122269#1 -302122269#0 -302108709#1 -302108709#0 -153813488#3 -153813488#2 -153813488#1 4017378#0 4017378#1 228017232#0 228017232#1 228017232#2 25714346 162583594#0 162583594#1 4005309#0 4005309#1 4005309#2 4005309#3"/>
    </vehicle>
    <vehicle id="veh55" type="passenger" depart="110.00">
        <route edges="33111441#0 33111443 35676861#0 35676861#2 41789165#1 41789165#3 322399446#1 322399445#0 322399445#1 121948124 4006142#0 4006142#1 4006142#2 42334930 24221155#0 14743778#0 14743817#1 218811509#0 218811509#1 24221156#0 24221156#2 24221156#3 218811612#0 218811612#2 218787180#1 -4006135 -503004021#8 -503004021#7 -503004021#6 -503004021#5 -503004021#2 -503004021#1 -503004021#0 -503004019 -4005309#4 -4005309#3 -4005309#2 -4005309#1 -4005309#0 -162583594#1 -162583594#0 -25714346 -228017232#2 -228017232#1 -228017232#0 -327522511#4 -327522511#3 -327522511#2 -327522511#0 -327522509#2 -327522509#1 -327522509#0 -327522510#4 -327522510#3 -327522510#2 -327522510#1 -327522510#0 -36924916 36924915 14973755 4005317#0 4005317#1 -4005303#1 -4005303#0 -446774381"/>
    </vehicle>
    <vehicle id="veh56" type="passenger" depart="112.00">
        <route edges="41112543#1 41112543#2 41112543#3 41112543#4 41112543#5 375687205#1 4006138 123992173 98243453#0 98243453#0-AddedOffRampEdge 19882352 218811613 271664520 28614656#1 28614656#2 407507554#0 407507554#1 407507554#2 407507554#3 407507554#4 -286809515#3 -286809515#2 -286809515#1 -286809509#1 -286809509#0 302105467#0"/>
    </vehicle>
    <vehicle id="veh57" type="passenger" depart="114.00">
        <route edges="-31779987#0"/>
    </vehicle>
    <vehicle id="veh58" type="passenger" depart="116.00">
        <route edges="42332877 206466382#0 189607533#1 352880026#1 212507396 109969692#1 24221146#1 189607534 25714334#1 468563689 224315807#0 224315807#1 224315808#1 224315808#2 162585239#0 162585239#1 407507552#1 -407507550#1 -407507550#0 302105470#0 -302105467#0 286809509#0 286809509#1 -302105475#1 -302105475#0 -286809510#1 -286809510#0 -162583593#0 286809511#0 286809511#1 -162583594#1 -162583594#0 -25714346 -228017232#2 -228017232#1 -228017232#0 -327522511#4 -327522511#3 -327522511#2 -327522511#0 -327522509#2 -327522509#1 -327522509#0 -327522510#4 -327522510#3 -327522510#2 -327522510#1 -327522510#0 -36924916 153813480#1 153813480#2 153813480#3 153813480#4 153813480#5 -160531218#1 -160531218#0 -338910796 -22758431#3 -22758431#2 -22758431#1 -22758431#0"/>
    </vehicle>
    <vehicle id="veh59" type="passenger" depart="118.00">
        <route edges="141001279#2 115685629#1 115685629#3 115685629#4 115685629#5 115685633#1 115685633#2 299156858#0 299156858#1 76536406 219433272 299158323#0 299158323#1 24590188#1 19881835 19881842 123991331#1-AddedOnRampEdge 123991331#1"/>
    </vehicle>
    <vehicle id="veh60" type="passenger" depart="120.00">
        <route edges="253257859 -248061547 4006133 253255132#0 253255132#1 253255133#0 253255133#1 253257582#0 253257582#1 253257582#2 253257581#0 218811817#0 218811817#2 375687205#0 375687205#1 4006138 123992173 98243453#0 98243453#0-AddedOffRampEdge 98243453#1 98243453#1-AddedOffRampEdge 98243455 98243452 98243454 32971625 123991331#0 123991331#1-AddedOnRampEdge 123991331#1"/>
    </vehicle>
    <vehicle id="veh61" type="passenger" depart="122.00">
        <route edges="24382119#1 50886938#1 50886938#2 50886938#3 50886938#4 455499063 216566472 428965774 222151428#1 222151428#2 4006134#1 4006134#2 4006134#4 448090108 448090102#0 448090102#1 448090102#2 448090102#3 4006136 218811611 19881825#0 19881825#1 19881825#2 127701248#1 33111441#0 -42332873#0 27767453 24221145#1 42332872#1"/>
    </vehicle>
    <vehicle id="veh62" type="passenger" depart="124.00">
        <route edges="22766229 278430754 300579849 32971780 98243457#0 98243457#0-AddedOffRampEdge 98243457#1 127701141 329385931 98243535 98243456 29185834 4006140 22942635#0 22942635#1 253257355#0 253257351#0 4006129#0"/>
    </vehicle>
    <vehicle id="veh63" type="passenger" depart="126.00">
        <route edges="-24382119#3 -24382104#2 24382120#4 24382120#5 363412670#9 456345217 24382082#0 24382082#1 456345218 4006134#2 4006134#4 448090108 448090102#0 448090102#1 448090102#2 448090102#3 4006136 218811611 19881825#0 19881825#1 19881825#2 127701248#1 33111441#0 33111442#1 326994924#0 19882595#0 19882595#1 5103831#2 -302007829#0 -7969181#1 -28614362#0 45291840 -8587904#2 -8587904#1 -8587904#0 35155434 212507396"/>
    </vehicle>
    <vehicle id="veh64" type="passenger" depart="128.00">
        <route edges="219059132#0 219059132#1 14743298#0 14743298#1 14743298#2 14743298#3 14743298#4 14743298#5 363250047#0 363250047#1 363250047#2 363250047#3 24221154#0 24221154#1 24221154#2 24221154#3 24221154#4 24221154#5 24221154#6 24221154#7 -24221157#3 -24221157#1 -24221157#0 -30679725 -367039069 -367539588 -28614609 -389635823 -389635822 -24603744#2 -24603744#1 177604960#14 177604960#15 177604960#18 177604960#19 407507553#1 407507553#2 407507553#3 407507554#0 407507554#1 407507554#2 407507554#3 407507554#4 286809516#1 286809516#2 286809516#3 286809508#0 286809508#1 286809508#2"/>
    </vehicle>
    <vehicle id="veh65" type="passenger" depart="130.00">
        <route edges="403367818#4 -14746315#12 -14746315#11 -14746315#10 -14746315#9 -14746315#8 -14746315#7 -14746315#6 -14746315#5 -131355231#3 -131355231#2 -131355231#1 -131355231#0 -131355232#0 -222183037#17"/>
    </vehicle>
    <vehicle id="veh66" type="passenger" depart="132.00">
        <route edges="-24603744#2 -23143718#0 -25823146#1 177604960#11 24603744#1 24603744#2 389635822 389635823 28614611 19882358#0 34398520 98243454 32971625 19881833 34398658 329385932 141001279#0 141001279#1 141001279#2 141001279#5 4005326 334951829#0 334951829#1 334951829#2 334951829#3 4078848 435298981 219845428 -23502714#6 -23502714#5 -23502714#4 -23502714#3 -23502714#2 -112654300 -44073339#1"/>
    </vehicle>
    <vehicle id="veh67" type="passenger" depart="134.00">
        <route edges="30759017 30759018 44073335#1 44073334#0 44073334#1 44073334#2 23483898#0 23483898#1"/>
    </vehicle>
    <vehicle id="veh69" type="passenger" depart="138.00">
        <route edges="203963763#1 203963763#2 203963763#3 5103830#1 219144649 219144641 219144643 176090835 176090836#0 176090837#1 219144645#0 219144645#1 5103833#0 5103833#1 5103833#2 24602238#0 24602238#1 76536405 9457379 115685631 219433270 285095417#0 285095417#1 -112654300 -44073339#1 44073329 -23502703#4 -23502703#3 -23502703#2 -23502703#0"/>
    </vehicle>
    <vehicle id="veh70" type="passenger" depart="140.00">
        <route edges="219860803#0 -219930006 -219930007#0 219930009 219930008#2 219931303 219931304 -219931065 -34891974 -219845317#1 -219845317#0 -219845318#3 -219845318#2 -219845318#1 -219845318#0 -334951829#3 -334951829#2 -334951829#1 -334951829#0 219845319#0 367536576#1 367536576#2 367536576#3 367536576#4 487435759 218811400 218811399#0 218811399#1 30679732#0 30679732#1 30679732#2 298236443#1 40542318#0 40542318#1 298236444#0 298236444#1 24603868#1 24603868#2 24603868#3 58741180 15090081 219059015 219058898#0 219058898#1 -302298890#5 -302298890#4 -302298890#3 342652996#0 342652996#1"/>
    </vehicle>
    <vehicle id="veh72" type="passenger" depart="144.00">
        <route edges="24039504#1 24039504#2 24039504#3 24039504#4 45476266#4 45476266#5 302007828#0 302007832#1 302007925#0 302007925#1 58741182 58741183#0 58741179#1 127701247#1 41789164#1 -35676861#2 -35676861#0 19882350#1 127701141 329385931 98243535 98243456 29185834 4006140 22942635#0 22942635#1 24382056 494886775"/>
    </vehicle>
    <vehicle id="veh73" type="passenger" depart="146.00">
        <route edges="-407507555 -62207368#0 28614398 121948129#1 127701248#1 33111441#0 33111443 19882350#1 127701141"/>
    </vehicle>
    <vehicle id="veh74" type="passenger" depart="148.00">
        <route edges="23143677#3 -23143684#4 -23143684#3 -23143684#2 -23143684#1 4017378#0 4017378#1 228017232#0 228017232#1 228017232#2 25714346 162583594#0 162583594#1 4005309#0 4005309#1 4005309#2 4005309#3 4005309#4 503004019 503004021#0 503004021#1 503004021#2 503004021#5 503004021#6 503004021#7 503004021#8 448090102#2 448090102#3 4006136 218811611 4321252 34398520 98243454 32971625 19881833 19882355 34398659#1 21669971 189607127 5103833#0 5103833#1 5103833#2 24602238#0 24602238#1"/>
    </vehicle>
    <vehicle id="veh75" type="passenger" depart="150.00">
        <route edges="216696534#1-AddedOffRampEdge 24382199 216566468 -222151426#1 -222151426#0 -216566472 4006132#0 366749405#0 -50886984#1 -50886984#0 -26171446#0 26171444 26171447"/>
    </vehicle>
    <vehicle id="veh76" type="passenger" depart="152.00">
        <route edges="127701141 329385931 98243535 98243456 29185834 4006140 22942635#0 22942635#1 24382056 25535043#0 25535043#1 26171447 26171446#0 50886984#0 50886984#1 366749405#1 -24382162#3 -24382162#2"/>
    </vehicle>
    <vehicle id="veh77" type="passenger" depart="154.00">
        <route edges="253257355#0 -4006130#1 -4006130#0 218811817#0 218811817#2 375687205#0 375687205#1 22942636 222151426#0 222151426#1 24382197 376735321 427501181#1-AddedOnRampEdge 427501181#1 216647780"/>
    </vehicle>
    <vehicle id="veh78" type="passenger" depart="156.00">
        <route edges="4005317#1 4005317#2 4005317#3 461110435#0 461110435#1 461110435#3 461110434 4005312#0 4005312#1 4005312#2 4005312#3 335458843#0 335458843#2 335458843#3 253258341 4006130#0 4006130#1 253257351#0 -494886774 -494886775 -24382056 253257355#0 -4006130#1 -4006130#0 -253258341 -335458843#3 -335458843#2"/>
    </vehicle>
    <vehicle id="veh80" type="passenger" depart="160.00">
        <route edges="141001279#1 307232130 367536576#3 367536576#4 487435759 218811400 218811399#0 218811399#1 30679732#0 30679732#1 30679732#2 298236443#1 40542318#0 40542318#1 298236442 98243457#0 98243457#0-AddedOffRampEdge 98243457#1 127701141 329385931 98243535 98243456 29185834 4006140 22942635#0 22942635#1 253257355#0 218811816#0 218811816#2 218811816#3 218811816#4 253257353"/>
    </vehicle>
    <vehicle id="veh81" type="passenger" depart="162.00">
        <route edges="233810258 220011895 219860820#0 219860820#1 219860819 219860803#0 -219930006 -219930007#0 219930009 219930008#2 219931303 219931304 -219931065 -34891974 -219845317#1 -219845317#0 -219845318#3 -219845318#2 -219845318#1 -219845318#0 -334951829#3 -334951829#2 -334951829#1 -334951829#0 219845319#0 367536576#1 367536576#2 367536576#3 367536576#4 487435759 218811400 218811399#0 218811399#1 30679732#0 30679732#1 30679732#2 298236443#1 40542318#0 40542318#1 298236442 98243457#0 98243457#0-AddedOffRampEdge 34398517 371443920#0 24221156#0 24221156#2 24221156#3 218811612#0 218811612#2 218787180#1 -4006135 -503004021#8 -503004021#7 -503004021#6 -503004021#5 -503004021#2 -503004021#1 -503004021#0 -503004019 -4005309#4 -4005309#3 -4005309#2 -4005309#1 -4005309#0 -162583594#1 -162583594#0 -25714346 153813487#0 153813487#1 153813487#2 153813488#1 153813488#2 153813488#3 302108709#0 302108709#1 447473037#0 447473037#1 447473037#2 310728722#0 310728722#1 -427501865#2 -427501865#1 -427501865#0 156532380#3"/>
    </vehicle>
    <vehicle id="veh82" type="passenger" depart="164.00">
        <route edges="-36924904#0 -36924903 -35565616 36924904#0 327522511#3 327522511#4 228017232#0 228017232#1 228017232#2 25714346 162583594#0 162583594#1 4005309#0 4005309#1 4005309#2 4005309#3 4005309#4 503004019 503004021#0 503004021#1 503004021#2 503004021#5 503004021#6 503004021#7 503004021#8 4006135 -34857878#1 -503003069#4 -503003069#3 -503003069#2 -503003069#1 -236611343 -236611341#3 -236611341#1 -236611341#0 -24221159#3 -24221159#2 -24221159#1 -24221154#8 -24221154#6 -24221154#5 -24221154#4 -24221154#3 -24221154#2 -24221154#1 -24221154#0 -363250047#3 -363250047#2 -363250047#1 -363250047#0 -14743298#5 -14743298#4 -14743298#3 -14743298#2 -14743298#1 -14743298#0 24221150#0 24221150#1 24221150#2 -302298890#5 -302298890#4 -302298890#3 -302298890#2 -302298890#1 -302298890#0 -340533303#2 -340533303#1 -340533303#0"/>
    </vehicle>
    <vehicle id="veh83" type="passenger" depart="166.00">
        <route edges="-22243872#1 -240851569#0 189607128#2 22689358 -41363149#2 -41363149#1 -41363149#0 21670040 22689355#0 22689355#1 22689355#2 24590188#0 24590188#1 19881835 19881840 141001279#1 141001279#2 141001279#5 4005326 334951829#0 334951829#1 334951829#2 334951829#3 219845318#0 219845318#1 219845318#2 219845318#3 219845317#0 219845317#1 34891974 219931065 219931068 -219931303 219931305#0 23502702#2"/>
    </vehicle>