<?xml version="1.0" encoding="UTF-8"?>

<!-- generated on Wed Feb 15 15:20:43 2017 by SUMO netconvert Version dev-SVN-r22961
<?xml version="1.0" encoding="UTF-8"?>

<configuration xmlns:xsi="http://www.w3.org/2001/XMLSchema-instance" xsi:noNamespaceSchemaLocation="http://sumo.dlr.de/xsd/netconvertConfiguration.xsd">

    <input>
        <node-files value="data/input_nodes.nod.xml,data/input_nodes2.nod.xml"/>
        <edge-files value="data/input_edges.edg.xml,data/input_edges2.edg.xml"/>
        <connection-files value="data/input_connections.con.xml,data/input_connections2.con.xml"/>
    </input>

    <output>
        <output-file value="data/joined_buslanes.net.xml"/>
    </output>

    <processing>
        <roundabouts.guess value="true"/>
        <check-lane-foes.all value="true"/>
    </processing>

    <report>
        <verbose value="true"/>
    </report>

</configuration>
-->

<net version="0.27" xmlns:xsi="http://www.w3.org/2001/XMLSchema-instance" xsi:noNamespaceSchemaLocation="http://sumo.dlr.de/xsd/net_file.xsd">

    <location netOffset="346.83,-207.06" convBoundary="0.00,0.00,2164.41,1916.16" origBoundary="-346.83,0.00,1817.58,2148.55" projParameter="!"/>

    <edge id=":a0_0" function="internal">
        <lane id=":a0_0_0" index="0" speed="13.89" length="9.94" shape="1752.84,812.98 1755.57,812.93 1757.46,812.76 1759.25,812.22 1761.68,811.05"/>
        <lane id=":a0_0_1" index="1" speed="13.89" length="9.94" shape="1752.92,816.28 1756.03,815.79 1758.13,814.89 1760.21,814.20 1763.26,814.33"/>
    </edge>
    <edge id=":a0_2" function="internal">
        <lane id=":a0_2_0" index="0" speed="13.89" length="10.48" shape="1752.92,816.28 1756.16,816.29 1758.38,816.53 1760.56,817.08 1763.68,818.01"/>
        <lane id=":a0_2_1" index="1" speed="13.89" length="10.48" shape="1753.00,819.58 1755.94,819.59 1757.96,819.82 1759.93,820.33 1762.77,821.18"/>
    </edge>
    <edge id=":a1_0" function="internal">
        <lane id=":a1_0_0" index="0" speed="13.89" length="9.53" shape="1850.28,842.65 1848.37,851.90"/>
        <lane id=":a1_0_1" index="1" speed="13.89" length="9.53" shape="1847.08,841.82 1845.15,851.15"/>
        <lane id=":a1_0_2" index="2" speed="13.89" length="9.53" shape="1843.89,840.99 1841.94,850.40"/>
    </edge>
    <edge id=":a1_3" function="internal">
        <lane id=":a1_3_0" index="0" speed="13.89" length="10.98" shape="1839.96,842.93 1844.07,845.01 1846.84,847.20 1848.27,849.50 1848.37,851.90"/>
        <lane id=":a1_3_1" index="1" speed="13.89" length="10.98" shape="1838.67,845.97 1841.70,847.41 1843.79,848.75 1844.94,850.00 1845.15,851.15"/>
    </edge>
    <edge id=":a11_0" function="internal">
        <lane id=":a11_0_0" index="0" speed="13.89" length="3.55" shape="650.01,170.74 650.59,171.52 651.30,171.83 652.01,172.13 652.60,172.91"/>
        <lane id=":a11_0_1" index="1" speed="13.89" length="3.55" shape="650.01,170.74 650.12,171.73 649.78,172.46 649.44,173.19 649.56,174.18"/>
    </edge>
    <edge id=":a12_0" function="internal">
        <lane id=":a12_0_0" index="0" speed="13.89" length="7.85" shape="668.74,236.17 667.53,233.70 666.30,231.94 665.05,230.89 663.78,230.54"/>
    </edge>
    <edge id=":a12_1" function="internal">
        <lane id=":a12_1_0" index="0" speed="13.89" length="9.44" shape="668.74,236.17 668.02,233.52 668.09,231.55 668.16,229.58 667.44,226.92"/>
    </edge>
    <edge id=":a12_2" function="internal">
        <lane id=":a12_2_0" index="0" speed="13.89" length="5.71" shape="671.78,234.87 670.67,230.88 671.03,229.35"/>
    </edge>
    <edge id=":a12_9" function="internal">
        <lane id=":a12_9_0" index="0" speed="13.89" length="8.05" shape="671.03,229.35 671.31,228.22 673.70,226.90 677.85,226.92"/>
    </edge>
    <edge id=":a12_3" function="internal">
        <lane id=":a12_3_0" index="0" speed="13.89" length="5.87" shape="677.40,230.19 675.64,230.18 674.61,230.74 674.34,231.87 674.82,233.58"/>
    </edge>
    <edge id=":a12_4" function="internal">
        <lane id=":a12_4_0" index="0" speed="13.89" length="13.65" shape="677.40,230.19 673.89,229.95 670.61,230.10 667.32,230.38 663.78,230.54"/>
    </edge>
    <edge id=":a12_5" function="internal">
        <lane id=":a12_5_0" index="0" speed="13.89" length="10.70" shape="677.40,230.19 673.37,229.52 670.36,228.75 668.39,227.88 667.44,226.92"/>
    </edge>
    <edge id=":a12_6" function="internal">
        <lane id=":a12_6_0" index="0" speed="13.89" length="4.98" shape="673.99,224.16 674.60,225.22 675.45,226.03 676.53,226.60 677.85,226.92"/>
    </edge>
    <edge id=":a12_7" function="internal">
        <lane id=":a12_7_0" index="0" speed="13.89" length="9.01" shape="670.95,225.44 674.82,233.58"/>
    </edge>
    <edge id=":a12_8" function="internal">
        <lane id=":a12_8_0" index="0" speed="13.89" length="4.64" shape="670.95,225.44 671.29,227.66 670.21,229.24 669.76,229.42"/>
    </edge>
    <edge id=":a12_10" function="internal">
        <lane id=":a12_10_0" index="0" speed="13.89" length="6.14" shape="669.76,229.42 667.70,230.21 663.78,230.54"/>
    </edge>
    <edge id=":a13_0" function="internal">
        <lane id=":a13_0_0" index="0" speed="13.89" length="5.55" shape="782.06,244.54 780.44,244.56 779.42,245.10 779.00,246.18 779.19,247.79"/>
    </edge>
    <edge id=":a13_1" function="internal">
        <lane id=":a13_1_0" index="0" speed="13.89" length="9.31" shape="782.06,244.54 772.83,243.31"/>
    </edge>
    <edge id=":a13_2" function="internal">
        <lane id=":a13_2_0" index="0" speed="13.89" length="4.11" shape="782.06,244.54 780.27,243.87 778.68,242.35"/>
    </edge>
    <edge id=":a13_4" function="internal">
        <lane id=":a13_4_0" index="0" speed="13.89" length="6.20" shape="778.68,242.35 777.28,239.98 776.07,236.75"/>
    </edge>
    <edge id=":a13_3" function="internal">
        <lane id=":a13_3_0" index="0" speed="13.89" length="9.29" shape="773.28,240.04 782.48,241.27"/>
    </edge>
    <edge id=":a133-begin_0" function="internal">
        <lane id=":a133-begin_0_0" index="0" allow="bus" speed="13.89" length="4.82" shape="2105.86,528.72 2107.26,529.21 2107.87,529.91 2107.67,530.81 2106.68,531.92"/>
    </edge>
    <edge id=":a15_0" function="internal">
        <lane id=":a15_0_0" index="0" speed="13.89" length="6.35" shape="1151.64,817.06 1150.93,815.91 1150.02,815.24 1148.91,815.07 1147.59,815.38"/>
        <lane id=":a15_0_1" index="1" speed="13.89" length="6.35" shape="1151.64,817.06 1150.36,814.58 1149.06,812.96 1147.73,812.21 1146.38,812.31"/>
    </edge>
    <edge id=":a15_2" function="internal">
        <lane id=":a15_2_0" index="0" speed="13.89" length="9.80" shape="1154.67,815.74 1152.85,811.03 1152.08,807.60 1152.24,806.38"/>
    </edge>
    <edge id=":a15_7" function="internal">
        <lane id=":a15_7_0" index="0" speed="13.89" length="2.46" shape="1152.24,806.38 1152.36,805.48 1153.68,804.65"/>
    </edge>
    <edge id=":a15_3" function="internal">
        <lane id=":a15_3_0" index="0" speed="13.89" length="5.78" shape="1149.53,797.99 1149.94,799.59 1150.72,800.69 1151.86,801.28 1153.36,801.37"/>
    </edge>
    <edge id=":a15_4" function="internal">
        <lane id=":a15_4_0" index="0" speed="13.89" length="15.52" shape="1149.53,797.99 1149.92,803.56 1149.52,807.80 1148.34,810.72 1146.38,812.31"/>
    </edge>
    <edge id=":a15_5" function="internal">
        <lane id=":a15_5_0" index="0" speed="13.89" length="10.28" shape="1142.90,803.51 1145.88,802.40 1147.99,801.88 1150.18,801.64 1153.36,801.37"/>
        <lane id=":a15_5_1" index="1" speed="13.89" length="10.28" shape="1144.11,806.58 1146.84,805.57 1148.77,805.11 1150.77,804.90 1153.68,804.65"/>
    </edge>
    <edge id=":a16_0" function="internal">
        <lane id=":a16_0_0" index="0" speed="13.89" length="4.08" shape="1010.02,855.05 1007.33,858.94"/>
        <lane id=":a16_0_1" index="1" speed="13.89" length="4.08" shape="1009.66,851.77 1007.10,855.65"/>
        <lane id=":a16_0_2" index="2" speed="13.89" length="4.08" shape="1009.66,851.77 1008.83,851.91 1008.27,852.08 1007.71,852.25 1006.87,852.36"/>
    </edge>
    <edge id=":a17_0" function="internal">
        <lane id=":a17_0_0" index="0" speed="13.89" length="0.34" shape="1164.48,846.16 1164.20,845.94"/>
        <lane id=":a17_0_1" index="1" speed="13.89" length="0.34" shape="1167.49,844.81 1167.23,844.62"/>
    </edge>
    <edge id=":a18_0" function="internal">
        <lane id=":a18_0_0" index="0" speed="13.89" length="7.92" shape="814.36,382.77 813.35,381.05 811.99,379.75 810.28,378.88 808.20,378.43"/>
    </edge>
    <edge id=":a18_1" function="internal">
        <lane id=":a18_1_0" index="0" speed="13.89" length="9.69" shape="814.36,382.77 813.36,379.60 813.51,377.42 814.80,376.23 817.22,376.04"/>
    </edge>
    <edge id=":a18_2" function="internal">
        <lane id=":a18_2_0" index="0" speed="13.89" length="8.74" shape="816.89,379.32 808.20,378.43"/>
    </edge>
    <edge id=":a18_3" function="internal">
        <lane id=":a18_3_0" index="0" speed="13.89" length="7.69" shape="811.37,371.86 812.10,373.50 813.31,374.75 815.02,375.59 817.22,376.04"/>
    </edge>
    <edge id=":a18_4" function="internal">
        <lane id=":a18_4_0" index="0" speed="13.89" length="9.04" shape="811.37,371.86 811.86,374.93 811.50,377.05 810.28,378.22 808.20,378.43"/>
    </edge>
    <edge id=":a18_5" function="internal">
        <lane id=":a18_5_0" index="0" speed="13.89" length="8.72" shape="808.54,375.15 817.22,376.04"/>
    </edge>
    <edge id=":a19_0" function="internal">
        <lane id=":a19_0_0" index="0" speed="13.89" length="10.34" shape="727.66,376.81 726.63,374.11 726.17,372.17 725.73,370.22 724.75,367.49"/>
        <lane id=":a19_0_1" index="1" speed="13.89" length="10.34" shape="727.66,376.81 727.10,373.92 727.73,371.63 728.35,369.28 727.78,366.20"/>
    </edge>
    <edge id=":a19_2" function="internal">
        <lane id=":a19_2_0" index="0" speed="13.89" length="10.98" shape="727.66,376.81 726.39,372.27 727.36,369.21 730.11,367.88"/>
    </edge>
    <edge id=":a19_7" function="internal">
        <lane id=":a19_7_0" index="0" speed="13.89" length="5.97" shape="730.11,367.88 730.57,367.65 736.02,367.59"/>
    </edge>
    <edge id=":a19_3" function="internal">
        <lane id=":a19_3_0" index="0" speed="13.89" length="5.83" shape="735.68,370.87 733.93,370.92 732.93,371.52 732.68,372.65 733.18,374.33"/>
    </edge>
    <edge id=":a19_4" function="internal">
        <lane id=":a19_4_0" index="0" speed="13.89" length="11.71" shape="735.68,370.87 731.27,370.27 727.98,369.51 725.81,368.58 724.75,367.49"/>
    </edge>
    <edge id=":a19_5" function="internal">
        <lane id=":a19_5_0" index="0" speed="13.89" length="6.12" shape="730.82,364.90 731.50,365.91 732.60,366.70 734.10,367.26 736.02,367.59"/>
    </edge>
    <edge id=":a19_6" function="internal">
        <lane id=":a19_6_0" index="0" speed="13.89" length="9.77" shape="730.82,364.90 731.71,367.64 731.97,369.63 732.24,371.62 733.18,374.33"/>
    </edge>
    <edge id=":a1b_0" function="internal">
        <lane id=":a1b_0_0" index="0" speed="13.89" length="13.66" shape="1826.33,836.03 1830.15,837.44 1832.57,838.89 1834.93,840.49 1838.60,842.35"/>
        <lane id=":a1b_0_1" index="1" speed="13.89" length="13.66" shape="1825.42,839.20 1829.12,840.58 1831.46,842.01 1833.75,843.58 1837.31,845.39"/>
    </edge>
    <edge id=":a1b_2" function="internal">
        <lane id=":a1b_2_0" index="0" speed="13.89" length="12.38" shape="1826.97,845.93 1830.37,833.92"/>
        <lane id=":a1b_2_1" index="1" speed="13.89" length="12.38" shape="1830.19,846.66 1833.56,834.74"/>
        <lane id=":a1b_2_2" index="2" speed="13.89" length="12.38" shape="1833.41,847.39 1836.76,835.57"/>
    </edge>
    <edge id=":a1c_0" function="internal">
        <lane id=":a1c_0_0" index="0" speed="13.89" length="5.19" shape="1855.34,822.02 1855.22,823.39 1855.59,824.48 1856.46,825.30 1857.83,825.84"/>
    </edge>
    <edge id=":a1c_1" function="internal">
        <lane id=":a1c_1_0" index="0" speed="13.89" length="8.78" shape="1855.34,822.02 1853.40,830.62"/>
        <lane id=":a1c_1_1" index="1" speed="13.89" length="8.78" shape="1852.14,821.22 1850.20,829.79"/>
        <lane id=":a1c_1_2" index="2" speed="13.89" length="8.78" shape="1848.94,820.42 1847.01,828.96"/>
    </edge>
    <edge id=":a1c_4" function="internal">
        <lane id=":a1c_4_0" index="0" speed="13.89" length="13.58" shape="1844.31,825.54 1847.85,825.37 1851.13,825.20 1854.37,825.27 1857.83,825.84"/>
    </edge>
    <edge id=":a2_0" function="internal">
        <lane id=":a2_0_0" index="0" speed="13.89" length="3.57" shape="1782.88,814.72 1783.86,814.63 1784.50,814.15 1785.14,813.65 1786.13,813.56"/>
        <lane id=":a2_0_1" index="1" speed="13.89" length="3.57" shape="1782.26,817.96 1783.25,817.88 1783.89,817.39 1784.54,816.90 1785.53,816.80"/>
        <lane id=":a2_0_2" index="2" speed="13.89" length="3.57" shape="1782.26,817.96 1783.14,818.38 1783.59,819.01 1784.05,819.64 1784.93,820.05"/>
    </edge>
    <edge id=":a204c_0" function="internal">
        <lane id=":a204c_0_0" index="0" speed="13.89" length="13.46" shape="1806.42,1039.79 1807.55,1043.37 1808.75,1045.67 1810.23,1047.86 1812.22,1051.10"/>
        <lane id=":a204c_0_1" index="1" speed="13.89" length="13.46" shape="1806.42,1039.79 1807.11,1043.70 1807.28,1046.48 1807.75,1049.15 1809.34,1052.71"/>
        <lane id=":a204c_0_2" index="2" speed="13.89" length="13.46" shape="1803.22,1040.59 1803.97,1044.75 1804.20,1047.71 1804.75,1050.53 1806.46,1054.31"/>
    </edge>
    <edge id=":a204c_3" function="internal">
        <lane id=":a204c_3_0" index="0" speed="13.89" length="12.31" shape="1803.22,1040.59 1804.02,1044.86 1804.11,1048.51 1803.48,1051.53 1802.14,1053.94"/>
        <lane id=":a204c_3_1" index="1" speed="13.89" length="12.31" shape="1800.02,1041.40 1800.71,1044.89 1800.87,1047.80 1800.49,1050.12 1799.58,1051.87"/>
    </edge>
    <edge id=":a20a_0" function="internal">
        <lane id=":a20a_0_0" index="0" speed="13.89" length="5.41" shape="782.83,540.37 782.61,538.86 782.10,537.63 781.29,536.67 780.18,535.99"/>
    </edge>
    <edge id=":a20a_1" function="internal">
        <lane id=":a20a_1_0" index="0" speed="13.89" length="5.08" shape="782.83,540.37 782.80,538.59 782.97,537.36 783.45,536.21 784.34,534.66"/>
        <lane id=":a20a_1_1" index="1" speed="13.89" length="5.08" shape="786.13,540.22 786.11,539.01 786.23,538.18 786.56,537.40 787.17,536.35"/>
    </edge>
    <edge id=":a20b_0" function="internal">
        <lane id=":a20b_0_0" index="0" speed="13.89" length="7.91" shape="785.13,525.65 787.14,526.29 788.85,526.59 790.27,526.54 791.39,526.15"/>
        <lane id=":a20b_0_1" index="1" speed="13.89" length="7.91" shape="783.96,528.74 786.70,529.57 789.12,529.90 791.24,529.71 793.05,529.00"/>
    </edge>
    <edge id=":a20b_2" function="internal">
        <lane id=":a20b_2_0" index="0" speed="13.89" length="8.35" shape="785.41,532.88 786.77,530.51 787.81,528.91 789.14,527.61 791.39,526.15"/>
        <lane id=":a20b_2_1" index="1" speed="13.89" length="8.35" shape="788.24,534.57 789.34,532.63 790.16,531.30 791.22,530.21 793.05,529.00"/>
    </edge>
    <edge id=":a20c_0" function="internal">
        <lane id=":a20c_0_0" index="0" speed="13.89" length="5.03" shape="794.69,524.24 795.78,523.38 796.32,522.39 796.31,521.26 795.76,519.99"/>
    </edge>
    <edge id=":a20c_1" function="internal">
        <lane id=":a20c_1_0" index="0" speed="13.89" length="4.34" shape="794.69,524.24 795.88,523.55 796.72,523.12 797.58,522.75 798.87,522.27"/>
        <lane id=":a20c_1_1" index="1" speed="13.89" length="4.34" shape="796.34,527.10 797.38,526.50 798.11,526.11 798.86,525.79 799.99,525.38"/>
    </edge>
    <edge id=":a21_0" function="internal">
        <lane id=":a21_0_0" index="0" speed="13.89" length="3.42" shape="766.73,448.99 767.34,449.72 768.07,449.95 768.82,450.18 769.46,450.89"/>
        <lane id=":a21_0_1" index="1" speed="13.89" length="3.42" shape="766.73,448.99 766.50,452.36"/>
    </edge>
    <edge id=":a21m_0" function="internal">
        <lane id=":a21m_0_0" index="0" speed="13.89" length="6.26" shape="783.34,499.77 782.36,498.19 781.71,497.10 781.13,495.97 780.38,494.27"/>
    </edge>
    <edge id=":a21m_1" function="internal">
        <lane id=":a21m_1_0" index="0" speed="13.89" length="5.72" shape="779.01,499.56 779.97,498.08 780.51,496.71 780.65,495.44 780.38,494.27"/>
    </edge>
    <edge id=":a23_0" function="internal">
        <lane id=":a23_0_0" index="0" speed="13.89" length="10.58" shape="873.18,726.72 871.80,723.92 870.16,721.77 868.25,720.27 866.08,719.41"/>
    </edge>
    <edge id=":a23_1" function="internal">
        <lane id=":a23_1_0" index="0" speed="13.89" length="14.19" shape="876.24,725.47 874.35,721.39 872.63,718.48 871.04,715.95 869.55,712.98"/>
    </edge>
    <edge id=":a23_2" function="internal">
        <lane id=":a23_2_0" index="0" speed="13.89" length="14.48" shape="874.30,710.97 876.10,714.12 878.50,716.64 881.51,718.51 885.13,719.74"/>
    </edge>
    <edge id=":a23_3" function="internal">
        <lane id=":a23_3_0" index="0" speed="13.89" length="14.53" shape="874.30,710.97 876.01,713.84 878.06,716.18 880.25,718.91 882.39,722.96"/>
    </edge>
    <edge id=":a23_4" function="internal">
        <lane id=":a23_4_0" index="0" speed="13.89" length="8.18" shape="874.30,710.97 875.64,715.81 874.71,718.83"/>
    </edge>
    <edge id=":a23_8" function="internal">
        <lane id=":a23_8_0" index="0" speed="13.89" length="8.88" shape="874.71,718.83 871.53,720.03 866.08,719.41"/>
    </edge>
    <edge id=":a23_5" function="internal">
        <lane id=":a23_5_0" index="0" speed="13.89" length="6.09" shape="866.83,716.20 868.70,716.39 869.77,715.92 870.05,714.78 869.55,712.98"/>
    </edge>
    <edge id=":a23_6" function="internal">
        <lane id=":a23_6_0" index="0" speed="13.89" length="18.64" shape="866.83,716.20 885.13,719.74"/>
    </edge>
    <edge id=":a23_7" function="internal">
        <lane id=":a23_7_0" index="0" speed="13.89" length="15.38" shape="866.83,716.20 871.44,717.59 875.06,719.39 877.69,721.59 879.34,724.20"/>
    </edge>
    <edge id=":a24_0" function="internal">
        <lane id=":a24_0_0" index="0" speed="13.89" length="7.61" shape="1036.39,56.93 1034.05,49.69"/>
    </edge>
    <edge id=":a24_1" function="internal">
        <lane id=":a24_1_0" index="0" speed="13.89" length="6.97" shape="1036.39,56.93 1035.87,54.72 1036.22,53.55 1037.43,53.43 1039.50,54.34"/>
    </edge>
    <edge id=":a25_0" function="internal">
        <lane id=":a25_0_0" index="0" speed="13.89" length="5.06" shape="988.31,91.95 989.60,91.43 990.39,90.62 990.69,89.52 990.48,88.14"/>
    </edge>
    <edge id=":a25_1" function="internal">
        <lane id=":a25_1_0" index="0" speed="13.89" length="5.07" shape="988.31,91.95 989.72,91.79 990.87,92.07 991.76,92.79 992.39,93.96"/>
    </edge>
    <edge id=":a25-begin_0" function="internal">
        <lane id=":a25-begin_0_0" index="0" speed="13.89" length="4.82" shape="526.38,670.26 525.26,669.28 524.96,668.40 525.48,667.64 526.82,666.99"/>
    </edge>
    <edge id=":a26_0" function="internal">
        <lane id=":a26_0_0" index="0" speed="13.89" length="14.20" shape="1952.08,571.91 1949.24,573.69 1947.16,576.48 1944.62,579.33 1940.39,581.27"/>
        <lane id=":a26_0_1" index="1" allow="bus" speed="13.89" length="14.20" shape="1952.08,571.91 1949.05,573.20 1946.61,574.91 1943.80,576.65 1939.70,578.04"/>
        <lane id=":a26_0_2" index="2" speed="13.89" length="14.20" shape="1952.08,571.91 1939.01,574.81"/>
    </edge>
    <edge id=":a26_3" function="internal">
        <lane id=":a26_3_0" index="0" speed="13.89" length="13.24" shape="1938.33,571.61 1951.25,568.72"/>
    </edge>
    <edge id=":a26_4" function="internal">
        <lane id=":a26_4_0" index="0" speed="13.89" length="5.63" shape="1943.42,584.33 1943.56,582.68 1943.10,581.62 1942.04,581.15 1940.39,581.27"/>
    </edge>
    <edge id=":a26_5" function="internal">
        <lane id=":a26_5_0" index="0" speed="13.89" length="18.02" shape="1943.42,584.33 1945.13,577.95 1947.00,573.22 1949.04,570.14 1951.25,568.72"/>
    </edge>
    <edge id=":a26_6" function="internal">
        <lane id=":a26_6_0" index="0" speed="13.89" length="5.15" shape="1943.42,584.33 1944.57,583.24 1945.53,583.00 1946.29,583.62 1946.86,585.11"/>
    </edge>
    <edge id=":a27_0" function="internal">
        <lane id=":a27_0_0" index="0" speed="13.89" length="9.78" shape="1924.74,584.60 1921.23,585.49 1918.63,586.47 1916.94,587.54 1916.17,588.69"/>
    </edge>
    <edge id=":a27_1" function="internal">
        <lane id=":a27_1_0" index="0" allow="bus" speed="13.89" length="33.08" shape="1924.09,581.37 1913.56,581.65 1904.35,579.28 1896.96,576.49 1891.92,575.47"/>
    </edge>
    <edge id=":a27_2" function="internal">
        <lane id=":a27_2_0" index="0" speed="13.89" length="23.18" shape="1923.43,578.13 1913.48,579.09 1907.06,576.96 1904.19,571.75 1904.23,571.28"/>
    </edge>
    <edge id=":a27_14" function="internal">
        <lane id=":a27_14_0" index="0" speed="13.89" length="7.86" shape="1904.23,571.28 1904.85,563.45"/>
    </edge>
    <edge id=":a27_3" function="internal">
        <lane id=":a27_3_0" index="0" speed="13.89" length="9.12" shape="1920.77,567.38 1920.17,570.90 1920.29,573.30 1921.16,574.58 1922.75,574.75"/>
    </edge>
    <edge id=":a27_4" function="internal">
        <lane id=":a27_4_0" index="0" speed="13.89" length="21.74" shape="1920.77,567.38 1916.17,588.69"/>
        <lane id=":a27_4_1" index="1" speed="13.89" length="21.74" shape="1917.57,566.59 1912.98,587.84"/>
        <lane id=":a27_4_2" index="2" speed="13.89" length="21.74" shape="1914.36,565.80 1909.79,586.99"/>
    </edge>
    <edge id=":a27_7" function="internal">
        <lane id=":a27_7_0" index="0" allow="bus" speed="13.89" length="25.26" shape="1914.36,565.80 1912.41,568.71 1908.02,571.29 1901.19,573.55 1891.92,575.47"/>
    </edge>
    <edge id=":a27_8" function="internal">
        <lane id=":a27_8_0" index="0" speed="13.89" length="9.33" shape="1890.26,565.58 1893.61,564.88 1896.09,564.03 1897.71,563.02 1898.45,561.86"/>
    </edge>
    <edge id=":a27_9" function="internal">
        <lane id=":a27_9_0" index="0" speed="13.89" length="32.79" shape="1890.80,568.83 1901.35,568.88 1910.49,571.26 1917.77,573.90 1922.75,574.75"/>
    </edge>
    <edge id=":a27_10" function="internal">
        <lane id=":a27_10_0" index="0" speed="13.89" length="29.30" shape="1891.35,572.09 1904.36,571.26 1912.84,573.74 1916.77,579.56 1916.75,579.96"/>
    </edge>
    <edge id=":a27_15" function="internal">
        <lane id=":a27_15_0" index="0" speed="13.89" length="8.75" shape="1916.75,579.96 1916.17,588.69"/>
    </edge>
    <edge id=":a27_11" function="internal">
        <lane id=":a27_11_0" index="0" speed="13.89" length="21.41" shape="1893.78,582.73 1898.45,561.86"/>
        <lane id=":a27_11_1" index="1" speed="13.89" length="21.41" shape="1896.97,583.58 1901.65,562.65"/>
    </edge>
    <edge id=":a27_13" function="internal">
        <lane id=":a27_13_0" index="0" speed="13.89" length="25.22" shape="1900.16,584.43 1902.09,581.80 1906.51,579.30 1913.39,576.96 1922.75,574.75"/>
    </edge>
    <edge id=":a28_0" function="internal">
        <lane id=":a28_0_0" index="0" speed="13.89" length="6.27" shape="1048.23,239.84 1042.16,241.37"/>
    </edge>
    <edge id=":a28_1" function="internal">
        <lane id=":a28_1_0" index="0" speed="13.89" length="5.43" shape="1043.04,234.29 1043.76,235.72 1044.69,236.60 1045.83,236.93 1047.18,236.71"/>
    </edge>
    <edge id=":a28_2" function="internal">
        <lane id=":a28_2_0" index="0" speed="13.89" length="7.92" shape="1043.04,234.29 1043.80,237.00 1043.91,239.09 1043.36,240.54 1042.16,241.37"/>
    </edge>
    <edge id=":a28_3" function="internal">
        <lane id=":a28_3_0" index="0" speed="13.89" length="6.24" shape="1041.12,238.23 1047.18,236.71"/>
    </edge>
    <edge id=":a29_0" function="internal">
        <lane id=":a29_0_0" index="0" speed="13.89" length="0.30" shape="1875.17,654.94 1875.18,654.85 1875.18,654.78 1875.18,654.71 1875.19,654.61"/>
        <lane id=":a29_0_1" index="1" speed="13.89" length="0.30" shape="1878.37,655.73 1878.39,655.65 1878.38,655.58 1878.37,655.52 1878.39,655.43"/>
        <lane id=":a29_0_2" index="2" speed="13.89" length="0.30" shape="1881.58,656.52 1881.59,656.45 1881.58,656.39 1881.57,656.34 1881.58,656.26"/>
    </edge>
    <edge id=":a3_0" function="internal">
        <lane id=":a3_0_0" index="0" speed="13.89" length="10.22" shape="1829.76,821.57 1831.24,821.66 1832.40,821.30 1833.25,820.52 1833.79,819.29"/>
        <lane id=":a3_0_1" index="1" speed="13.89" length="10.22" shape="1829.16,824.82 1832.00,824.96 1834.25,824.23 1835.91,822.62 1836.98,820.14"/>
        <lane id=":a3_0_2" index="2" speed="13.89" length="10.22" shape="1828.56,828.06 1832.77,828.26 1836.10,827.15 1838.57,824.72 1840.17,820.99"/>
    </edge>
    <edge id=":a3_3" function="internal">
        <lane id=":a3_3_0" index="0" speed="13.89" length="14.39" shape="1828.56,828.06 1833.00,828.23 1836.31,827.33 1839.25,826.18 1842.56,825.57"/>
    </edge>
    <edge id=":a3_4" function="internal">
        <lane id=":a3_4_0" index="0" speed="13.89" length="12.77" shape="1830.92,831.76 1833.79,819.29"/>
        <lane id=":a3_4_1" index="1" speed="13.89" length="12.77" shape="1834.12,832.59 1836.98,820.14"/>
        <lane id=":a3_4_2" index="2" speed="13.89" length="12.77" shape="1837.31,833.41 1840.17,820.99"/>
    </edge>
    <edge id=":a30_0" function="internal">
        <lane id=":a30_0_0" index="0" speed="13.89" length="6.83" shape="920.79,261.21 918.77,261.36 917.39,261.66 916.02,261.88 914.01,261.79"/>
    </edge>
    <edge id=":a30_1" function="internal">
        <lane id=":a30_1_0" index="0" speed="13.89" length="4.95" shape="917.65,254.87 917.89,256.20 918.50,257.15 919.47,257.72 920.80,257.91"/>
    </edge>
    <edge id=":a30_2" function="internal">
        <lane id=":a30_2_0" index="0" speed="13.89" length="6.30" shape="917.65,254.87 917.53,258.09 916.88,260.32 916.36,260.87"/>
    </edge>
    <edge id=":a30_6" function="internal">
        <lane id=":a30_6_0" index="0" speed="13.89" length="2.66" shape="916.36,260.87 915.71,261.55 914.01,261.79"/>
    </edge>
    <edge id=":a30_3" function="internal">
        <lane id=":a30_3_0" index="0" speed="13.89" length="6.42" shape="914.44,258.52 916.32,258.60 917.61,258.37 918.91,258.06 920.80,257.91"/>
    </edge>
    <edge id=":a30_4" function="internal">
        <lane id=":a30_4_0" index="0" speed="13.89" length="5.14" shape="917.09,265.19 916.96,263.86 916.40,262.85 915.42,262.16 914.01,261.79"/>
    </edge>
    <edge id=":a30_5" function="internal">
        <lane id=":a30_5_0" index="0" speed="13.89" length="6.38" shape="917.09,265.19 917.46,262.00 918.21,259.73 918.70,259.12"/>
    </edge>
    <edge id=":a30_7" function="internal">
        <lane id=":a30_7_0" index="0" speed="13.89" length="2.53" shape="918.70,259.12 919.32,258.36 920.80,257.91"/>
    </edge>
    <edge id=":a31_0" function="internal">
        <lane id=":a31_0_0" index="0" speed="13.89" length="5.04" shape="1097.78,223.16 1096.55,223.75 1095.80,224.60 1095.54,225.72 1095.75,227.09"/>
    </edge>
    <edge id=":a31_1" function="internal">
        <lane id=":a31_1_0" index="0" speed="13.89" length="6.39" shape="1097.78,223.16 1091.70,225.14"/>
    </edge>
    <edge id=":a31_2" function="internal">
        <lane id=":a31_2_0" index="0" speed="13.89" length="5.01" shape="1090.65,222.01 1091.87,221.39 1092.60,220.53 1092.84,219.42 1092.57,218.07"/>
    </edge>
    <edge id=":a31_3" function="internal">
        <lane id=":a31_3_0" index="0" speed="13.89" length="6.47" shape="1090.65,222.01 1096.80,220.01"/>
    </edge>
    <edge id=":a31_4" function="internal">
        <lane id=":a31_4_0" index="0" speed="13.89" length="3.24" shape="1090.65,222.01 1092.18,221.92 1093.54,222.73 1093.61,222.84"/>
    </edge>
    <edge id=":a31_5" function="internal">
        <lane id=":a31_5_0" index="0" speed="13.89" length="4.80" shape="1093.61,222.84 1094.73,224.46 1095.75,227.09"/>
    </edge>
    <edge id=":a32_0" function="internal">
        <lane id=":a32_0_0" index="0" speed="13.89" length="5.00" shape="1142.01,212.58 1141.40,211.35 1140.55,210.60 1139.45,210.34 1138.10,210.55"/>
    </edge>
    <edge id=":a32_1" function="internal">
        <lane id=":a32_1_0" index="0" speed="13.89" length="8.14" shape="1142.01,212.58 1141.34,209.85 1141.34,207.75 1142.01,206.26 1143.35,205.40"/>
    </edge>
    <edge id=":a32_2" function="internal">
        <lane id=":a32_2_0" index="0" speed="13.89" length="6.60" shape="1144.39,208.53 1138.10,210.55"/>
    </edge>
    <edge id=":a32_3" function="internal">
        <lane id=":a32_3_0" index="0" speed="13.89" length="5.03" shape="1139.47,203.37 1140.05,204.63 1140.89,205.38 1141.99,205.64 1143.35,205.40"/>
    </edge>
    <edge id=":a32_4" function="internal">
        <lane id=":a32_4_0" index="0" speed="13.89" length="8.10" shape="1139.47,203.37 1140.07,206.14 1140.05,208.26 1139.39,209.73 1138.10,210.55"/>
    </edge>
    <edge id=":a32_5" function="internal">
        <lane id=":a32_5_0" index="0" speed="13.89" length="6.55" shape="1137.12,207.40 1143.35,205.40"/>
    </edge>
    <edge id=":a33_0" function="internal">
        <lane id=":a33_0_0" index="0" speed="13.89" length="0.39" shape="1950.93,443.56 1950.62,443.79"/>
        <lane id=":a33_0_1" index="1" speed="13.89" length="0.39" shape="1947.73,442.75 1947.42,442.98"/>
        <lane id=":a33_0_2" index="2" speed="13.89" length="0.39" shape="1944.54,441.93 1944.23,442.17"/>
    </edge>
    <edge id=":a34_0" function="internal">
        <lane id=":a34_0_0" index="0" speed="13.89" length="12.58" shape="1944.19,469.07 1941.26,481.28"/>
        <lane id=":a34_0_1" index="1" speed="13.89" length="12.58" shape="1940.98,468.27 1938.05,480.52"/>
    </edge>